Mass spectrum: (3aS)-6-hydroxy-3a,5,5,8-tetramethyl-3,3a,4,5-tetrahydro-1Hcyclopenta[de]isochromen1-one; ESI-Q-TOF; MS2; CE:46.2; [M+H]+
Name: (3aS)-6-hydroxy-3a,5,5,8-tetramethyl-3,3a,4,5-tetrahydro-1Hcyclopenta[de]isochromen1-one
Class: 2-benzopyrans; Natural Product
Formula: C15H18O3
Exact mass: 246.1256
SMILES: C1(=C(C=C2C3=C1C(OCC3(CC2(C)C)C)=O)O)C
InChI: InChI=1S/C15H18O3/c1-8-10(16)5-9-12-11(8)13(17)18-7-15(12,4)6-14(9,2)3/h5,16H,6-7H2,1-4H3/t15-/m1/s1
Instrument: ESI-Q-TOF
Instrument type: ESI-Q-TOF
Ms type: MS2
Ion mode: POSITIVE
Collision energy: 46.2
Precursor m/z: 229.12230620711003
m/z	relative intensity
105.07087	92
115.05463	75
128.06286	155
131.08809	125
141.07220	321
143.08946	370
144.05644	125
144.09150	138
145.06409	133
145.10163	115
154.07712	239
158.07232	363
159.07997	490
159.11866	87
160.08788	113
161.05792	74
171.08014	830
172.08881	745
173.09447	357
182.07383	117
186.10192	201
187.10920	999
199.07603	201
229.12424	268
