Mass spectrum: Dichotosinin; ESI-Q-TOF; MS2; CE:46.2; [M+H]+
Name: Dichotosinin
Class: Flavonoid O-glycosides; Natural Product
Formula: C24H30O10
Exact mass: 478.1839
SMILES: C1(=CC(=C2C(=C1)OC(CC2)C3=CC=C(C(=C3)OC)OC)OC4C(C(C(C(O4)CO)O)O)O)OC
InChI: InChI=1S/C24H30O10/c1-29-13-9-17-14(5-7-15(32-17)12-4-6-16(30-2)19(8-12)31-3)18(10-13)33-24-23(28)22(27)21(26)20(11-25)34-24/h4,6,8-10,15,20-28H,5,7,11H2,1-3H3
Instrument: Bruker timsTOF
Instrument type: timsTOF
Ms type: MS2
Ion mode: POSITIVE
Collision energy: 46.2
Precursor m/z: 461.1806089310699
m/z	relative intensity
79.05403	57
81.07065	514
82.07297	80
85.06494	39
109.06854	999
110.06827	58
111.07654	68
147.04470	35
151.03810	37
153.01762	32
159.08046	35
163.03962	77
165.05550	34
175.03916	54
177.09274	54
179.03363	51
187.07671	62
189.05481	54
190.05979	31
191.03471	227
192.03903	35
193.05601	340
194.05240	42
201.09162	74
202.09974	35
203.07123	79
205.04895	81
205.08215	138
207.02832	58
207.06603	35
209.04577	41
215.06887	72
219.10120	63
229.08558	177
230.09094	30
231.06565	202
231.09962	63
232.07126	86
233.04895	38
233.08109	240
234.08654	69
247.09778	170
248.10279	67
250.08232	87
251.09097	257
252.09247	55
257.08094	105
275.09114	333
276.09422	108
293.10148	323
294.10641	79
