Mass spectrum: Rickitin; ESI-Q-TOF; MS2; CE:40.656; [M+H]+
Name: Rickitin
Class: ; Natural Product
Formula: C20H26O3
Exact mass: 314.1882
SMILES: C1CC(C2(C(C1)(C3=C(C(C2=O)=O)C=C(C=C3)C(C)C)C)O)(C)C
InChI: InChI=1S/C20H26O3/c1-12(2)13-7-8-15-14(11-13)16(21)17(22)20(23)18(3,4)9-6-10-19(15,20)5/h7-8,11-12,23H,6,9-10H2,1-5H3/t19-,20-/m1/s1
Instrument: Bruker timsTOF
Instrument type: timsTOF
Ms type: MS2
Ion mode: POSITIVE
Collision energy: 40.656
Precursor m/z: 315.19547114900996
m/z	relative intensity
55.05685	999
83.08454	380
85.06420	46
128.06141	31
143.08633	79
159.08026	37
167.08196	42
171.08056	111
172.08723	32
173.06063	101
173.09668	33
179.08550	46
187.07549	71
187.11154	57
194.10869	42
199.07660	102
199.11294	79
200.07877	33
201.09198	35
201.12853	44
203.06801	43
203.10768	47
209.09806	40
209.13305	51
211.07745	53
211.11306	32
213.09015	78
213.12817	89
215.10741	95
217.08613	277
221.09505	38
227.10518	70
229.12271	170
230.12763	32
231.10234	74
232.10602	305
233.11608	61
236.12095	50
237.13003	50
241.12435	60
255.13898	40
