Mass spectrum: Rickitin; ESI-Q-TOF; MS2; CE:40.656; [M+H]+
Name: Rickitin
Class: ; Natural Product
Formula: C20H26O3
Exact mass: 314.1882
SMILES: C1CC(C2(C(C1)(C3=C(C(C2=O)=O)C=C(C=C3)C(C)C)C)O)(C)C
InChI: InChI=1S/C20H26O3/c1-12(2)13-7-8-15-14(11-13)16(21)17(22)20(23)18(3,4)9-6-10-19(15,20)5/h7-8,11-12,23H,6,9-10H2,1-5H3/t19-,20-/m1/s1
Instrument: ESI-Q-TOF
Instrument type: ESI-Q-TOF
Ms type: MS2
Ion mode: POSITIVE
Collision energy: 40.656
Precursor m/z: 297.18490646494996
m/z	relative intensity
79.05314	104
91.05514	37
95.08508	51
105.06951	31
115.05452	52
117.07014	72
128.06054	98
129.07007	129
141.07041	157
142.07658	75
143.08545	229
145.06981	40
145.09945	30
147.08061	53
152.06073	41
153.06895	126
154.07639	66
155.08538	642
156.09093	109
157.06408	52
157.10146	105
159.08041	118
165.07001	162
166.07591	119
167.08541	438
168.09185	153
169.06414	75
169.10227	382
170.07285	42
170.10871	118
171.08166	454
171.11565	46
172.08890	218
173.09646	95
174.06635	31
178.07730	42
179.08472	392
180.09556	246
181.06842	155
181.10335	390
182.07165	85
182.10571	90
183.07943	41
183.11619	221
184.08745	45
184.12351	64
185.09381	256
185.13134	68
186.10131	148
187.07869	692
187.11337	175
188.07897	112
189.08999	77
193.10084	279
194.11127	479
195.08111	180
195.11391	250
196.08590	129
196.12396	95
197.09491	115
197.13226	225
198.06621	173
198.10294	103
199.07772	314
199.11251	509
199.14919	95
200.07925	132
200.11818	100
201.09135	95
201.12688	231
204.09469	77
207.08318	103
207.11890	106
208.09038	78
208.12447	268
209.09621	168
209.13232	779
210.13964	273
211.07777	223
211.11405	211
211.14929	153
212.08249	169
212.12033	53
213.09069	346
213.12743	285
214.09513	121
214.13219	196
215.10644	493
216.11041	143
219.11881	140
221.09883	247
221.13410	110
222.10291	303
223.10992	140
223.14942	73
224.08196	34
224.11431	52
225.09525	105
225.12643	162
226.10420	98
226.13312	54
227.10893	326
227.14323	346
228.11418	54
228.14351	31
229.12168	999
230.12642	267
234.09924	32
235.11344	121
236.11818	122
236.15348	51
237.12748	298
237.16610	37
238.10051	37
238.13386	100
238.16803	31
239.10669	496
239.13684	79
240.11424	162
240.14962	102
241.12424	230
241.15546	79
249.12968	141
250.13651	48
251.14443	39
251.18233	127
252.18468	64
253.12330	84
254.12887	288
254.16729	42
255.13647	207
255.17549	57
256.14085	31
261.16634	37
264.14943	80
267.13810	290
268.14781	135
279.17242	103
282.16119	321
283.16620	85
297.18477	64
298.18922	38
298.34697	34
