Mass spectrum: 6"-hidroxymitorubrinol acetate; ESI-Q-TOF; MS2; CE:40.656; [M+H]+
Name: 6"-hidroxymitorubrinol acetate
Class: ; Natural Product
Formula: C23H20O10
Exact mass: 456.1056
SMILES: C1=C(C(=C(C(=C1O)C(OC2(C(C=3C(=CC2=O)C=C(OC3)C=CCOC(C)=O)=O)C)=O)C)O)O
InChI: InChI=1S/C23H20O10/c1-11-19(16(25)9-17(26)20(11)28)22(30)33-23(3)18(27)8-13-7-14(5-4-6-31-12(2)24)32-10-15(13)21(23)29/h4-5,7-10,25-26,28H,6H2,1-3H3/b5-4+/t23-/m0/s1
Instrument: ESI-Q-TOF
Instrument type: ESI-Q-TOF
Ms type: MS2
Ion mode: POSITIVE
Collision energy: 40.656
Precursor m/z: 373.2009660171019
m/z	relative intensity
57.07201	204
58.07395	56
69.06907	44
158.07194	38
171.08035	30
173.09616	535
174.10186	164
183.08268	40
185.10189	39
191.10899	35
195.08042	61
196.08830	45
197.09588	97
198.06671	50
198.10206	45
199.07726	44
199.11132	56
209.09699	44
210.10274	63
211.07677	136
211.11174	322
212.08074	41
212.11776	139
213.09080	700
214.09584	159
215.10600	83
216.11175	31
221.09746	43
223.07596	52
223.11231	36
224.08326	108
224.11589	31
225.09096	334
225.12722	162
226.09880	581
226.13525	79
227.09398	100
227.10655	981
228.11186	345
229.11874	115
235.11522	52
236.11552	31
237.09090	106
237.12332	33
238.09863	90
239.10648	853
240.11170	358
241.12148	87
248.12023	30
249.12590	33
251.10903	43
251.14593	31
253.12254	475
254.13400	221
255.10244	217
255.13248	43
256.10908	77
257.11749	174
258.11979	73
262.13689	36
265.12544	118
266.12979	92
267.13580	41
267.17460	120
268.10797	43
268.18234	61
269.11659	129
270.12308	68
271.13544	335
272.13847	224
273.14446	51
277.15878	122
278.15927	67
279.13917	86
280.14427	82
281.11344	243
282.12246	106
283.12802	41
290.12964	120
291.13461	57
293.15719	36
294.16130	250
295.16888	999
296.17413	550
297.17927	98
304.14639	83
305.15065	55
312.17210	207
313.17911	677
314.18497	475
315.18925	131
319.17049	185
320.17563	63
337.18499	85
338.18916	55
355.19008	39
356.19487	39
