Mass spectrum: Hypomiltin; ESI-Q-TOF; MS2; CE:40.656; [M+H]+
Name: Hypomiltin
Class: p-Hydroxybenzoic acid alkyl esters; Natural Product
Formula: C23H22O9
Exact mass: 442.1264
SMILES: O=C(OC1(C(C=2C(=CC1=O)CC(OC2)C=CCOC(C)=O)=O)C)C3=C(O)C=C(O)C=C3C
InChI: InChI=1S/C23H22O9/c1-12-7-15(25)10-18(26)20(12)22(29)32-23(3)19(27)9-14-8-16(5-4-6-30-13(2)24)31-11-17(14)21(23)28/h4-5,7,9-11,16,25-26H,6,8H2,1-3H3/b5-4+/t16?,23-/m0/s1
Instrument: Bruker timsTOF
Instrument type: timsTOF
Ms type: MS2
Ion mode: POSITIVE
Collision energy: 40.656
Precursor m/z: 443.13365873769
m/z	relative intensity
151.03921	999
152.04378	94
