Mass spectrum: Mitorubrinic acid; ESI-Q-TOF; MS2; CE:40.656; [M+H]+
Name: Mitorubrinic acid
Class: Azaphilones; Natural Product
Formula: C21H16O9
Exact mass: 412.0794
SMILES: C1=C(C=C(C(=C1O)C(OC2(C(C=3C(=CC2=O)C=C(OC3)C=CC(O)=O)=O)C)=O)C)O
InChI: InChI=1S/C21H16O9/c1-10-5-12(22)8-15(23)18(10)20(28)30-21(2)16(24)7-11-6-13(3-4-17(25)26)29-9-14(11)19(21)27/h3-9,22-23H,1-2H3,(H,25,26)/b4-3+/t21-/m0/s1
Instrument: ESI-Q-TOF
Instrument type: ESI-Q-TOF
Ms type: MS2
Ion mode: POSITIVE
Collision energy: 40.656
Precursor m/z: 413.08670854430994
m/z	relative intensity
151.03880	999
152.04222	82
245.04367	45
