Mass spectrum: Mitorubrinol acetate; ESI-Q-TOF; MS2; CE:46.2; [M+H]+
Name: Mitorubrinol acetate
Class: Azaphilones; Natural Product
Formula: C23H20O9
Exact mass: 440.1107
SMILES: C1=C(C=C(C(=C1O)C(OC2(C(C=3C(=CC2=O)C=C(OC3)C=CCOC(C)=O)=O)C)=O)C)O
InChI: InChI=1S/C23H20O9/c1-12-7-15(25)10-18(26)20(12)22(29)32-23(3)19(27)9-14-8-16(5-4-6-30-13(2)24)31-11-17(14)21(23)28/h4-5,7-11,25-26H,6H2,1-3H3/b5-4+/t23-/m0/s1
Instrument: Bruker timsTOF
Instrument type: timsTOF
Ms type: MS2
Ion mode: POSITIVE
Collision energy: 46.2
Precursor m/z: 441.11800867322995
m/z	relative intensity
151.03889	999
152.04225	73
189.05446	45
231.06567	125
248.06856	54
249.07489	62
273.07597	93
291.09426	34
