Mass spectrum: Rickenyl B; ESI-Q-TOF; MS2; CE:40.656; [M+H]+
Name: Rickenyl B
Class: Anisoles; Natural Product
Formula: C22H20O6
Exact mass: 380.1260
SMILES: C1(=C(C(=O)C(C(=C1OC)C2=CC=C(C=C2)OC)=O)C3=CC=C(C=C3)OC)OC
InChI: InChI=1S/C22H20O6/c1-25-15-9-5-13(6-10-15)17-19(23)20(24)18(22(28-4)21(17)27-3)14-7-11-16(26-2)12-8-14/h5-12H,1-4H3
Instrument: ESI-Q-TOF
Instrument type: ESI-Q-TOF
Ms type: MS2
Ion mode: POSITIVE
Collision energy: 40.656
Precursor m/z: 381.13326481443
m/z	relative intensity
258.05250	33
303.06505	169
304.07080	72
306.08848	43
307.09626	100
318.08871	164
319.06020	53
319.09261	37
320.06664	42
323.09092	39
333.07574	31
334.08341	53
335.09150	999
335.11271	51
336.09473	219
350.11501	391
351.08621	40
351.11786	91
