Mass spectrum: BNT; ESI-Q-TOF; MS2; CE:40.656; [M+H]+
Name: BNT
Class: Biphenols; Natural Product
Formula: C20H14O4
Exact mass: 318.0892
SMILES: C12=C(C(=CC=C1O)C3=CC=C(C4=C3C=CC=C4O)O)C=CC=C2O
InChI: InChI=1S/C20H14O4/c21-15-5-1-3-13-11(7-9-17(23)19(13)15)12-8-10-18(24)20-14(12)4-2-6-16(20)22/h1-10,21-24H
Instrument: ESI-Q-TOF
Instrument type: ESI-Q-TOF
Ms type: MS2
Ion mode: POSITIVE
Collision energy: 40.656
Precursor m/z: 319.09648538184996
m/z	relative intensity
103.05432	35
107.04828	46
131.04879	491
132.05483	57
159.04057	406
160.05145	999
161.05969	118
173.06026	41
197.06021	43
217.10120	47
226.08288	71
227.08578	93
231.07543	44
245.09474	211
247.07569	32
248.08787	42
255.08043	547
256.08730	140
258.06823	40
259.07425	37
263.07080	53
264.07733	30
271.07601	80
272.08287	92
273.09109	448
274.09451	101
276.07779	87
277.08500	66
283.07501	514
284.08100	303
285.08637	58
291.10173	69
299.07755	50
300.07696	169
301.08480	470
302.08608	151
318.08691	56
319.09501	125
