Mass spectrum: Dichotosinin; ESI-Q-TOF; MS2; CE:46.2; [M+H]+
Name: Dichotosinin
Class: Flavonoid O-glycosides; Natural Product
Formula: C24H30O10
Exact mass: 478.1839
SMILES: C1(=CC(=C2C(=C1)OC(CC2)C3=CC=C(C(=C3)OC)OC)OC4C(C(C(C(O4)CO)O)O)O)OC
InChI: InChI=1S/C24H30O10/c1-29-13-9-17-14(5-7-15(32-17)12-4-6-16(30-2)19(8-12)31-3)18(10-13)33-24-23(28)22(27)21(26)20(11-25)34-24/h4,6,8-10,15,20-28H,5,7,11H2,1-3H3
Instrument: ESI-Q-TOF
Instrument type: ESI-Q-TOF
Ms type: MS2
Ion mode: POSITIVE
Collision energy: 46.2
Precursor m/z: 501.17311786489995
m/z	relative intensity
165.05029	143
195.06316	837
217.05013	62
253.08429	90
277.11213	76
282.07852	36
313.10447	149
329.10222	999
330.10926	151
341.09874	371
359.11677	59
401.11735	82
441.15530	73
442.15065	36
501.17742	282
