Mass spectrum: Rickenyl D/E; ESI-Q-TOF; MS2; CE:40.656; [M+H]+
Name: Rickenyl D/E
Class: P-terphenyls; Natural Product
Formula: C21H20O6
Exact mass: 368.1260
SMILES: C1(=C(C(=C(C(=C1O)C2=CC=C(C=C2)O)O)OC)C3=CC=C(C=C3)OC)OC
InChI: InChI=1S/C21H20O6/c1-25-15-10-6-13(7-11-15)17-20(26-2)18(23)16(19(24)21(17)27-3)12-4-8-14(22)9-5-12/h4-11,22-24H,1-3H3
Instrument: Bruker timsTOF
Instrument type: timsTOF
Ms type: MS2
Ion mode: POSITIVE
Collision energy: 40.656
Precursor m/z: 391.11520906420003
m/z	relative intensity
206.74314	999
320.10186	924
