Mass spectrum: (3aS)-6-hydroxy-3a,5,5,8-tetramethyl-3,3a,4,5-tetrahydro-1Hcyclopenta[de]isochromen1-one; ESI-Q-TOF; MS2; CE:35.112; [M+H]+
Name: (3aS)-6-hydroxy-3a,5,5,8-tetramethyl-3,3a,4,5-tetrahydro-1Hcyclopenta[de]isochromen1-one
Class: 2-benzopyrans; Natural Product
Formula: C15H18O3
Exact mass: 246.1256
SMILES: C1(=C(C=C2C3=C1C(OCC3(CC2(C)C)C)=O)O)C
InChI: InChI=1S/C15H18O3/c1-8-10(16)5-9-12-11(8)13(17)18-7-15(12,4)6-14(9,2)3/h5,16H,6-7H2,1-4H3/t15-/m1/s1
Instrument: ESI-Q-TOF
Instrument type: ESI-Q-TOF
Ms type: MS2
Ion mode: POSITIVE
Collision energy: 35.112
Precursor m/z: 247.13287089117003
m/z	relative intensity
57.06899	50
91.05583	51
105.06967	98
117.06795	44
119.08616	49
121.06662	138
128.06237	115
129.06888	69
131.08585	62
133.10203	173
134.10522	32
135.08200	34
141.06970	48
142.07672	69
143.08192	166
144.05735	37
145.06059	116
145.09863	89
146.07595	225
147.08015	292
155.08589	59
157.06512	37
157.10150	34
158.07284	130
159.08001	438
159.11561	43
160.08755	182
161.09627	999
162.09928	153
165.05610	31
170.10843	75
171.08613	90
172.09522	357
173.06010	31
173.09930	456
173.13307	67
174.09970	250
175.11182	47
177.05417	35
181.06495	46
183.11648	35
185.06004	36
185.13179	37
186.10436	230
187.07519	231
187.11166	526
188.07903	38
188.11633	120
191.07009	73
196.08870	34
199.07583	39
199.11376	39
201.12782	319
202.13169	67
203.14453	102
204.07725	45
205.08589	170
214.09522	77
218.09429	37
229.12197	637
230.12554	115
247.13317	78
