Mass spectrum: Rubiginosin A; ESI-Q-TOF; MS2; CE:46.2; [M+H]+
Name: Rubiginosin A
Class: Azaphilones; Natural Product
Formula: C23H24O9
Exact mass: 444.1420
SMILES: C1(=CC(=C(C(=C1)O)C(=O)OC2CC3=C(C(C2(O)C)=O)COC(=C3)C=CCOC(C)=O)C)O
InChI: InChI=1S/C23H24O9/c1-12-7-15(25)10-18(26)20(12)22(28)32-19-9-14-8-16(5-4-6-30-13(2)24)31-11-17(14)21(27)23(19,3)29/h4-5,7-8,10,19,25-26,29H,6,9,11H2,1-3H3/b5-4+/t19?,23-/m1/s1
Instrument: ESI-Q-TOF
Instrument type: ESI-Q-TOF
Ms type: MS2
Ion mode: POSITIVE
Collision energy: 46.2
Precursor m/z: 467.13125305192
m/z	relative intensity
129.07010	36
133.06877	35
147.08001	113
161.09660	47
173.02043	397
174.02633	53
174.06630	51
175.07585	144
176.08199	38
189.09296	156
217.08611	129
235.09604	143
256.06966	54
257.07978	133
289.10179	41
290.11113	61
299.09039	99
317.09967	999
318.10356	168
319.10682	69
