Mass spectrum: Truncaquinone B; ESI-Q-TOF; MS2; CE:46.2; [M+H]+
Name: Truncaquinone B
Class: Prenylquinones; Natural Product
Formula: C27H22N2O4
Exact mass: 438.1580
SMILES: C1(=C(C(C(=C(C1=O)C=2C=3C=CC=CC3NC2)O)=O)C=4C=5C=CC=CC5NC4C(C)(C=C)C)O
InChI: InChI=1S/C27H22N2O4/c1-4-27(2,3)26-19(15-10-6-8-12-18(15)29-26)21-24(32)22(30)20(23(31)25(21)33)16-13-28-17-11-7-5-9-14(16)17/h4-13,28-30,33H,1H2,2-3H3
Instrument: Bruker timsTOF
Instrument type: timsTOF
Ms type: MS2
Ion mode: POSITIVE
Collision energy: 46.2
Precursor m/z: 461.14717789826
m/z	relative intensity
179.03480	395
180.04006	59
292.09585	323
293.10377	53
302.07948	65
303.08877	144
319.08359	53
336.08574	89
363.07385	137
363.09814	93
364.08270	999
364.10123	96
365.08504	227
366.08576	32
392.07716	852
393.08432	318
