Mass spectrum: Rickiol A; ESI-Q-TOF; MS2; CE:46.2; [M+H]+
Name: Rickiol A
Class: ; Natural Product
Formula: C24H44O6
Exact mass: 428.3138
SMILES: C1CCCCCCCCCCC(OC(C=CC(O)CC(O)C1)=O)CC(CC(C)O)O
InChI: InChI=1S/C24H44O6/c1-19(25)16-22(28)18-23-13-11-9-7-5-3-2-4-6-8-10-12-20(26)17-21(27)14-15-24(29)30-23/h14-15,19-23,25-28H,2-13,16-18H2,1H3
Instrument: Bruker timsTOF
Instrument type: timsTOF
Ms type: MS2
Ion mode: POSITIVE
Collision energy: 46.2
Precursor m/z: 451.30300983771997
m/z	relative intensity
335.25307	31
433.29215	97
451.30205	999
452.30557	271
