Mass spectrum: (3aS,8R)-3a,5,5,8-tetramethyl-3,3a,4,5,7,8-hexahydro-1Hcyclopenta[de]isochromen-1-one; ESI-Q-TOF; MS2; CE:35.112; [M+H]+
Name: (3aS,8R)-3a,5,5,8-tetramethyl-3,3a,4,5,7,8-hexahydro-1Hcyclopenta[de]isochromen-1-one
Class: Dihydropyranones; Natural Product
Formula: C15H20O2
Exact mass: 232.1463
SMILES: C1(C2=C3C(=CC1)C(CC3(COC2=O)C)(C)C)C
InChI: InChI=1S/C15H20O2/c1-9-5-6-10-12-11(9)13(16)17-8-15(12,4)7-14(10,2)3/h6,9H,5,7-8H2,1-4H3/t9?,15-/m1/s1
Instrument: ESI-Q-TOF
Instrument type: ESI-Q-TOF
Ms type: MS2
Ion mode: POSITIVE
Collision energy: 35.112
Precursor m/z: 233.15360633602998
m/z	relative intensity
55.05436	54
57.06904	36
67.05347	35
69.06922	38
79.05418	39
91.05398	273
92.05694	42
93.07196	155
95.08534	53
103.05401	84
105.07075	803
106.07398	64
107.08527	121
115.05563	132
116.06068	86
117.06734	382
118.07372	41
119.08561	999
120.08790	102
121.06531	58
121.09919	40
128.06401	47
129.06936	59
130.07728	69
131.05620	113
131.08529	403
132.08956	80
133.10398	337
134.10525	67
141.07024	42
142.07826	36
143.08548	90
144.09457	73
145.06472	447
145.10162	636
146.06869	50
146.10792	136
147.11485	271
149.05975	306
149.09712	34
150.06399	38
155.08558	31
156.09348	53
157.10105	120
158.07215	42
158.11052	90
159.07948	322
159.12282	306
160.08442	53
160.12226	74
161.13002	83
163.07804	370
164.07878	53
172.12621	146
173.09589	100
173.12988	147
174.13877	66
177.09178	142
182.11169	49
187.14616	152
188.15183	35
189.16535	55
191.10711	43
215.14566	62
233.15308	37
