Mass spectrum: Cohaerin E; ESI-Q-TOF; MS2; CE:46.2; [M+H]+
Name: Cohaerin E
Class: Annonaceous acetogenins; Natural Product
Formula: C28H30O6
Exact mass: 462.2042
SMILES: C1(C2(C(C=3C(=C1)C=C(OC3)C=4C(C)=CC=CC4O)=C(C(O2)=O)C(=O)C(CCCCCC)C)C)=O
InChI: InChI=1S/C28H30O6/c1-5-6-7-8-10-17(3)26(31)24-25-19-15-33-21(23-16(2)11-9-12-20(23)29)13-18(19)14-22(30)28(25,4)34-27(24)32/h9,11-15,17,29H,5-8,10H2,1-4H3
Instrument: Bruker timsTOF
Instrument type: timsTOF
Ms type: MS2
Ion mode: POSITIVE
Collision energy: 46.2
Precursor m/z: 463.21151513672993
m/z	relative intensity
135.04402	74
153.12698	73
161.06297	39
225.09136	184
235.07524	34
237.09025	36
241.08687	71
245.15293	70
246.16282	71
252.07960	36
253.08592	706
254.09091	109
265.08689	41
267.10132	43
277.08834	71
279.10433	37
280.07469	37
280.11443	40
281.08541	209
281.11457	32
282.08517	59
283.09606	34
291.10089	32
295.09596	172
304.10870	31
305.08273	59
309.11546	52
323.09151	584
324.09467	116
333.18623	36
335.05547	32
335.09580	45
347.20100	55
351.19514	52
365.21134	147
366.21419	38
375.19514	174
376.19866	61
393.20628	999
394.20956	242
395.21228	32
421.20076	38
