Mass spectrum: Orsellinic acid; ESI-Q-TOF; MS2; CE:46.2; [M+H]+
Name: Orsellinic acid
Class: Alkyl-phenylketones; Natural Product
Formula: C9H10O3
Exact mass: 166.0630
SMILES: C1(=CC(=CC(=C1C(=O)C)C)O)O
InChI: InChI=1S/C9H10O3/c1-5-3-7(11)4-8(12)9(5)6(2)10/h3-4,11-12H,1-2H3
Instrument: Bruker timsTOF
Instrument type: timsTOF
Ms type: MS2
Ion mode: POSITIVE
Collision energy: 46.2
Precursor m/z: 151.03897050441
m/z	relative intensity
51.02225	437
55.01723	181
65.03827	222
68.99595	999
79.05337	134
