Mass spectrum: Mitorubrinol; ESI-Q-TOF; MS2; CE:40.656; [M+H]+
Name: Mitorubrinol
Class: Azaphilones; Natural Product
Formula: C21H18O8
Exact mass: 398.1002
SMILES: C1=C(C=C(C(=C1O)C(OC2(C(C=3C(=CC2=O)C=C(OC3)C=CCO)=O)C)=O)C)O
InChI: InChI=1S/C21H18O8/c1-11-6-13(23)9-16(24)18(11)20(27)29-21(2)17(25)8-12-7-14(4-3-5-22)28-10-15(12)19(21)26/h3-4,6-10,22-24H,5H2,1-2H3/b4-3+/t21-/m0/s1
Instrument: Bruker timsTOF
Instrument type: timsTOF
Ms type: MS2
Ion mode: POSITIVE
Collision energy: 40.656
Precursor m/z: 399.10744398917
m/z	relative intensity
151.03879	999
152.04178	74
161.05930	32
203.06897	71
206.05740	51
207.06478	65
231.06509	353
232.06817	54
249.07547	170
