Mass spectrum: Mitorubrin; ESI-Q-TOF; MS2; CE:40.656; [M+H]+
Name: Mitorubrin
Class: Azaphilones; Natural Product
Formula: C21H18O7
Exact mass: 382.1053
SMILES: C1=C(C=C(C(=C1O)C(OC2(C(C=3C(=CC2=O)C=C(OC3)C=CC)=O)C)=O)C)O
InChI: InChI=1S/C21H18O7/c1-4-5-14-7-12-8-17(24)21(3,19(25)15(12)10-27-14)28-20(26)18-11(2)6-13(22)9-16(18)23/h4-10,22-23H,1-3H3/b5-4+/t21-/m0/s1
Instrument: ESI-Q-TOF
Instrument type: ESI-Q-TOF
Ms type: MS2
Ion mode: POSITIVE
Collision energy: 40.656
Precursor m/z: 405.09447361934
m/z	relative intensity
212.04419	81
240.03846	72
255.06289	999
256.06600	143
