Mass spectrum: Mitorubrinol; ESI-Q-TOF; MS2; CE:40.656; [M+H]+
Name: Mitorubrinol
Class: Azaphilones; Natural Product
Formula: C21H18O8
Exact mass: 398.1002
SMILES: C1=C(C=C(C(=C1O)C(OC2(C(C=3C(=CC2=O)C=C(OC3)C=CCO)=O)C)=O)C)O
InChI: InChI=1S/C21H18O8/c1-11-6-13(23)9-16(24)18(11)20(27)29-21(2)17(25)8-12-7-14(4-3-5-22)28-10-15(12)19(21)26/h3-4,6-10,22-24H,5H2,1-2H3/b4-3+/t21-/m0/s1
Instrument: Bruker timsTOF
Instrument type: timsTOF
Ms type: MS2
Ion mode: POSITIVE
Collision energy: 40.656
Precursor m/z: 421.08938823894005
m/z	relative intensity
173.02253	51
228.04033	155
229.04278	36
256.03452	81
271.06189	999
272.06222	221
