Mass spectrum: Rickitin; ESI-Q-TOF; MS2; CE:40.656; [M+H]+
Name: Rickitin
Class: ; Natural Product
Formula: C20H26O3
Exact mass: 314.1882
SMILES: C1CC(C2(C(C1)(C3=C(C(C2=O)=O)C=C(C=C3)C(C)C)C)O)(C)C
InChI: InChI=1S/C20H26O3/c1-12(2)13-7-8-15-14(11-13)16(21)17(22)20(23)18(3,4)9-6-10-19(15,20)5/h7-8,11-12,23H,6,9-10H2,1-5H3/t19-,20-/m1/s1
Instrument: Bruker timsTOF
Instrument type: timsTOF
Ms type: MS2
Ion mode: POSITIVE
Collision energy: 40.656
Precursor m/z: 337.17741539878
m/z	relative intensity
337.17653	999
338.18254	207
339.18078	40
