Mass spectrum: (3aS)-3a,5,5,8-tetramethyl-3,3a,4,5-tetrahydro-1Hcyclopenta[de]isochromen-1-one; ESI-Q-TOF; MS2; CE:35.112; [M+H]+
Name: (3aS)-3a,5,5,8-tetramethyl-3,3a,4,5-tetrahydro-1Hcyclopenta[de]isochromen-1-one
Class: 2-benzopyrans; Natural Product
Formula: C15H18O3
Exact mass: 246.1256
SMILES: C1(=CC(=C2C3=C1C(OCC3(CC2(C)C)C)=O)O)C
InChI: InChI=1S/C15H18O3/c1-8-5-9(16)11-12-10(8)13(17)18-7-15(12,4)6-14(11,2)3/h5,16H,6-7H2,1-4H3/t15-/m1/s1
Instrument: Bruker timsTOF
Instrument type: timsTOF
Ms type: MS2
Ion mode: POSITIVE
Collision energy: 35.112
Precursor m/z: 213.12739158751
m/z	relative intensity
105.07031	55
115.05522	57
127.05463	71
128.06109	434
129.06988	235
130.07660	78
131.08756	45
141.07150	531
142.07760	650
143.08870	561
144.09187	152
145.10050	32
152.06179	34
153.06960	70
154.07649	61
155.08560	828
155.10143	52
156.09678	999
157.10401	470
158.10493	64
165.06979	85
166.07712	34
167.08444	31
169.10235	171
170.10907	469
171.08489	64
171.11659	280
172.08671	71
172.12290	35
179.08433	34
180.09109	74
183.08059	170
183.11616	31
184.08583	70
185.13273	116
195.11885	34
197.09661	34
198.10653	80
213.12889	128
214.13330	40
