Mass spectrum: Rickenyl B; ESI-Q-TOF; MS2; CE:46.2; [M+H]+
Name: Rickenyl B
Class: Anisoles; Natural Product
Formula: C22H20O6
Exact mass: 380.1260
SMILES: C1(=C(C(=O)C(C(=C1OC)C2=CC=C(C=C2)OC)=O)C3=CC=C(C=C3)OC)OC
InChI: InChI=1S/C22H20O6/c1-25-15-9-5-13(6-10-15)17-19(23)20(24)18(22(28-4)21(17)27-3)14-7-11-16(26-2)12-8-14/h5-12H,1-4H3
Instrument: Bruker timsTOF
Instrument type: timsTOF
Ms type: MS2
Ion mode: POSITIVE
Collision energy: 46.2
Precursor m/z: 403.11520906420003
m/z	relative intensity
317.07791	161
318.08373	162
345.07683	401
359.09071	101
360.09712	999
361.10419	270
