Mass spectrum: Rubiginosin A; ESI-Q-TOF; MS2; CE:46.2; [M+H]+
Name: Rubiginosin A
Class: Azaphilones; Natural Product
Formula: C23H24O9
Exact mass: 444.1420
SMILES: C1(=CC(=C(C(=C1)O)C(=O)OC2CC3=C(C(C2(O)C)=O)COC(=C3)C=CCOC(C)=O)C)O
InChI: InChI=1S/C23H24O9/c1-12-7-15(25)10-18(26)20(12)22(28)32-19-9-14-8-16(5-4-6-30-13(2)24)31-11-17(14)21(27)23(19,3)29/h4-5,7-8,10,19,25-26,29H,6,9,11H2,1-3H3/b5-4+/t19?,23-/m1/s1
Instrument: ESI-Q-TOF
Instrument type: ESI-Q-TOF
Ms type: MS2
Ion mode: POSITIVE
Collision energy: 46.2
Precursor m/z: 445.14930880214996
m/z	relative intensity
129.06861	32
133.06574	38
143.08517	85
147.08155	73
151.03867	999
152.04203	82
157.06530	38
161.09788	63
171.08117	123
174.07015	200
175.07449	137
189.09177	172
190.09586	30
199.08112	85
217.08669	121
235.09764	75
249.11332	48
