Mass spectrum: (3aS,8R)-3a,5,5,8-tetramethyl-3,3a,4,5,7,8-hexahydro-1Hcyclopenta[de]isochromen-1-one; ESI-Q-TOF; MS2; CE:46.2; [M+H]+
Name: (3aS,8R)-3a,5,5,8-tetramethyl-3,3a,4,5,7,8-hexahydro-1Hcyclopenta[de]isochromen-1-one
Class: Dihydropyranones; Natural Product
Formula: C15H20O2
Exact mass: 232.1463
SMILES: C1(C2=C3C(=CC1)C(CC3(COC2=O)C)(C)C)C
InChI: InChI=1S/C15H20O2/c1-9-5-6-10-12-11(9)13(16)17-8-15(12,4)7-14(10,2)3/h6,9H,5,7-8H2,1-4H3/t9?,15-/m1/s1
Instrument: ESI-Q-TOF
Instrument type: ESI-Q-TOF
Ms type: MS2
Ion mode: POSITIVE
Collision energy: 46.2
Precursor m/z: 233.15360633602998
m/z	relative intensity
77.03870	86
79.05414	58
81.07028	85
91.05373	738
92.05627	45
93.07018	64
95.08586	42
102.04576	49
103.05376	290
104.06085	42
105.07033	999
106.07437	115
107.08608	106
115.05428	383
116.06106	183
117.06892	514
118.07631	34
119.08559	822
120.08853	35
121.06395	123
121.09948	42
127.05504	86
128.06103	149
129.07036	173
130.07715	172
131.04969	71
131.08530	671
132.09151	111
133.10234	156
142.07726	123
143.08432	153
144.09245	217
145.06639	472
145.10129	506
146.10340	67
147.11649	183
149.06036	298
155.08615	54
156.09136	46
157.10131	277
158.10833	80
159.08122	194
159.11644	225
160.12376	77
161.09500	52
163.07522	123
172.12551	98
173.09893	58
173.13275	217
174.13872	35
177.09166	105
186.10442	60
187.14922	155
233.15274	36
