Mass spectrum: Minutellin A; ESI-Q-TOF; MS2; CE:46.2; [M+H]+
Name: Minutellin A
Class: Annonaceous acetogenins; Natural Product
Formula: C27H30O7
Exact mass: 466.1992
SMILES: C1(C2(C(C=3C(=C1)C=C(OC3)C=4C(=O)CC(CC4C)O)=C(C(O2)=O)C(=O)CCCCCCC)C)=O
InChI: InChI=1S/C27H30O7/c1-4-5-6-7-8-9-19(29)24-25-18-14-33-21(23-15(2)10-17(28)13-20(23)30)11-16(18)12-22(31)27(25,3)34-26(24)32/h11-12,14,17,28H,4-10,13H2,1-3H3/t17?,27-/m0/s1
Instrument: ESI-Q-TOF
Instrument type: ESI-Q-TOF
Ms type: MS2
Ion mode: POSITIVE
Collision energy: 46.2
Precursor m/z: 467.20642975632995
m/z	relative intensity
153.05455	35
231.13832	56
232.14772	46
243.10194	61
271.09670	314
272.10028	47
295.09070	33
297.07560	65
299.09131	105
313.10748	105
341.10218	345
342.10530	72
353.17468	55
369.20606	48
379.19012	93
397.20087	999
397.22431	36
398.20421	247
399.20709	31
425.19511	42
