Mass spectrum: Rickiol A; ESI-Q-TOF; MS2; CE:40.656; [M+H]+
Name: Rickiol A
Class: ; Natural Product
Formula: C24H44O6
Exact mass: 428.3138
SMILES: C1CCCCCCCCCCC(OC(C=CC(O)CC(O)C1)=O)CC(CC(C)O)O
InChI: InChI=1S/C24H44O6/c1-19(25)16-22(28)18-23-13-11-9-7-5-3-2-4-6-8-10-12-20(26)17-21(27)14-15-24(29)30-23/h14-15,19-23,25-28H,2-13,16-18H2,1H3
Instrument: ESI-Q-TOF
Instrument type: ESI-Q-TOF
Ms type: MS2
Ion mode: POSITIVE
Collision energy: 40.656
Precursor m/z: 393.29993621983
m/z	relative intensity
55.05267	103
67.05370	263
69.06882	142
79.05491	227
81.06903	586
83.08465	101
85.06531	55
91.05616	172
92.05743	36
93.06993	356
94.07463	77
95.08542	999
96.08881	96
97.02794	41
97.09955	45
98.10362	31
99.04282	130
99.08001	41
101.02319	73
105.06979	329
107.04843	102
107.08631	292
108.08889	62
109.06671	50
109.09923	705
110.10375	76
111.04364	104
111.07970	47
117.06942	85
119.08438	386
121.06380	51
121.10181	368
122.10563	43
123.11692	329
125.09425	31
127.03881	35
131.08678	127
133.06434	75
133.10022	345
134.10379	36
135.08095	68
135.11643	410
136.11980	59
137.09523	38
137.13272	98
145.10023	156
147.08090	34
147.11668	244
149.13195	157
151.07352	34
159.11886	104
161.09578	98
161.13231	125
163.14869	86
171.11828	34
173.13312	50
175.14730	84
177.16439	35
187.14733	52
189.16408	69
203.18036	31
217.15958	36
277.25340	71
299.23738	45
329.28123	35
339.26998	63
357.27948	68
