Mass spectrum: Daldinin C; ESI-Q-TOF; MS2; CE:40.656; [M+H]+
Name: Daldinin C
Class: unavailable
Formula: CH4
Exact mass: 16
SMILES: C
InChI: InChI=1S/CH4/h1H4
Instrument: ESI-Q-TOF
Instrument type: ESI-Q-TOF
Ms type: MS2
Ion mode: POSITIVE
Collision energy: 40.656
Precursor m/z: 435.16495886660994
m/z	relative intensity
55.05432	284
83.04923	811
84.05251	60
85.06678	71
125.02274	39
125.05937	39
145.06484	42
151.03814	51
153.01698	59
159.07953	60
161.05877	42
163.04033	155
163.07415	39
165.05420	69
173.05984	40
175.03867	83
177.01837	53
177.05584	37
177.09140	75
179.03433	107
187.07558	100
189.05469	102
191.03356	433
191.10970	45
192.03946	51
193.04929	425
194.05324	56
195.02621	31
201.09265	99
203.07083	65
205.04998	163
205.08627	187
206.05235	45
206.08751	31
207.02990	41
207.06375	31
209.04502	80
211.07558	51
215.07050	126
216.08315	38
217.05018	53
219.02610	72
219.06788	53
219.10075	73
221.05098	48
229.08783	314
230.08823	77
231.06458	338
231.09339	61
232.06993	145
233.04721	124
233.08055	627
234.04615	56
234.08754	96
247.09569	350
248.09933	58
249.07589	70
250.08360	196
251.09604	559
252.08968	75
257.08081	302
258.08647	73
275.09084	999
276.10157	227
277.09896	34
293.10154	619
294.10529	86
351.18720	100
