Mass spectrum: (3aS)-3a,5,5,8-tetramethyl-3,3a,4,5-tetrahydro-1Hcyclopenta[de]isochromen-1-one; ESI-Q-TOF; MS2; CE:35.112; [M+H]+
Name: (3aS)-3a,5,5,8-tetramethyl-3,3a,4,5-tetrahydro-1Hcyclopenta[de]isochromen-1-one
Class: 2-benzopyrans; Natural Product
Formula: C15H18O3
Exact mass: 246.1256
SMILES: C1(=CC(=C2C3=C1C(OCC3(CC2(C)C)C)=O)O)C
InChI: InChI=1S/C15H18O3/c1-8-5-9(16)11-12-10(8)13(17)18-7-15(12,4)6-14(11,2)3/h5,16H,6-7H2,1-4H3/t15-/m1/s1
Instrument: Bruker timsTOF
Instrument type: timsTOF
Ms type: MS2
Ion mode: POSITIVE
Collision energy: 35.112
Precursor m/z: 231.13795627157
m/z	relative intensity
57.07178	47
91.05474	122
105.07068	282
106.07337	55
115.05409	56
116.05882	44
117.07003	92
128.06195	300
129.06522	228
130.08087	318
131.08714	363
132.08937	34
141.07060	113
142.07830	195
143.08824	538
144.09240	145
145.10098	999
146.10689	173
155.08559	162
156.09391	451
157.10154	434
158.10672	156
159.11624	52
169.10191	64
170.10928	233
171.08075	414
171.12159	452
172.08421	39
172.12086	61
175.07649	56
180.09274	32
185.13246	236
189.09068	67
195.11670	44
198.10289	30
213.12846	329
214.13293	87
231.13787	35
