Mass spectrum: Hinnulin A; ESI-Q-TOF; MS2; CE:40.656; [M+H]+
Name: Hinnulin A
Class: Naphthoquinones; Natural Product
Formula: C20H12O6
Exact mass: 348.0634
SMILES: C1=C(C(C2=C(C1=O)C(=C(C=C2)C3=C4C=CC=C(C4=C(C=C3)O)O)O)=O)O
InChI: InChI=1S/C20H12O6/c21-13-3-1-2-10-9(6-7-14(22)17(10)13)11-4-5-12-18(20(11)26)15(23)8-16(24)19(12)25/h1-8,21-22,24,26H
Instrument: Bruker timsTOF
Instrument type: timsTOF
Ms type: MS2
Ion mode: POSITIVE
Collision energy: 40.656
Precursor m/z: 349.07066455659
m/z	relative intensity
68.99653	118
131.04969	346
132.05132	46
159.04392	357
160.05116	99
175.03880	77
177.07082	36
189.01704	37
195.08076	83
197.09622	82
199.03967	141
203.03552	98
205.06614	44
207.08066	143
208.08275	39
217.06570	73
223.07592	205
225.09297	143
226.09352	42
227.03362	121
228.03894	33
233.06034	180
234.06898	95
235.07529	215
236.07905	55
247.07649	57
251.07039	489
252.07579	128
253.08604	182
254.09009	34
261.05510	199
262.06022	33
265.08643	52
275.07298	339
276.07523	57
279.07118	575
280.07150	156
285.05415	70
286.05907	52
293.08371	442
294.08526	122
302.06168	44
303.06315	908
304.06992	251
321.08352	999
322.07992	304
331.06066	246
332.06390	55
349.06999	350
350.07376	102
