Mass spectrum: Rickenyl A; ESI-Q-TOF; MS2; CE:40.656; [M+H]+
Name: Rickenyl A
Class: P-terphenyls; Natural Product
Formula: C22H22O6
Exact mass: 382.1416
SMILES: C1(=C(C(=C(C(=C1OC)C2=CC=C(C=C2)OC)O)O)C3=CC=C(C=C3)OC)OC
InChI: InChI=1S/C22H22O6/c1-25-15-9-5-13(6-10-15)17-19(23)20(24)18(22(28-4)21(17)27-3)14-7-11-16(26-2)12-8-14/h5-12,23-24H,1-4H3
Instrument: Bruker timsTOF
Instrument type: timsTOF
Ms type: MS2
Ion mode: POSITIVE
Collision energy: 40.656
Precursor m/z: 383.14891487889
m/z	relative intensity
245.04315	31
276.07832	94
288.07807	102
291.10177	286
292.10471	42
303.06500	53
304.07266	177
305.07960	68
307.09639	88
319.09626	209
320.06700	35
320.11131	79
321.07533	30
335.09183	999
335.11366	36
336.08827	199
353.10220	190
354.10527	34
368.12537	141
369.13009	30
