Mass spectrum: Fragiformin B; ESI-Q-TOF; MS2; CE:46.2; [M+H]+
Name: Fragiformin B
Class: Isoindolones; Natural Product
Formula: C28H35NO4
Exact mass: 449.2566
SMILES: C1=CC=CC(=C1)CC2NC(C34C2C(C(C(C3C=CCC(CC(C=CC4=O)(C)O)C)O)=C)C)=O
InChI: InChI=1S/C28H35NO4/c1-17-9-8-12-21-25(31)19(3)18(2)24-22(15-20-10-6-5-7-11-20)29-26(32)28(21,24)23(30)13-14-27(4,33)16-17/h5-8,10-14,17-18,21-22,24-25,31,33H,3,9,15-16H2,1-2,4H3,(H,29,32)/t17?,18?,21?,22?,24?,25?,27-,28+/m0/s1
Instrument: Bruker timsTOF
Instrument type: timsTOF
Ms type: MS2
Ion mode: POSITIVE
Collision energy: 46.2
Precursor m/z: 450.26388506307995
m/z	relative intensity
69.06972	110
85.06317	71
91.05341	455
93.07004	86
95.08536	266
97.10216	35
99.08063	37
103.05504	36
105.07013	407
107.08868	149
109.10163	42
113.09689	53
115.05375	67
117.07278	198
119.08626	407
120.08850	999
121.06476	46
121.08467	63
121.10061	58
128.04917	393
129.06959	73
131.08534	237
132.08456	45
133.06393	35
133.10012	166
134.10636	31
135.07793	84
136.08124	38
137.09671	190
141.07137	116
143.08476	214
144.08755	174
145.06353	37
145.09361	240
146.06241	439
146.10028	59
147.06042	92
147.07149	47
147.08078	140
148.08248	50
155.08595	34
157.10113	156
158.06987	57
158.10384	65
159.08154	98
159.11687	200
160.08014	80
160.11822	40
161.09561	124
163.07115	31
163.11246	107
167.08875	178
169.10157	196
170.10508	49
171.08027	158
171.11558	227
172.07533	232
172.08847	52
173.09228	450
173.12667	31
174.09359	184
174.13341	40
175.07345	72
175.10547	218
176.11096	44
181.10135	54
182.10763	56
183.08089	48
183.11786	231
184.08501	38
184.12170	58
185.08022	75
185.09698	267
185.13147	123
186.09590	196
187.10689	174
188.11272	52
189.12815	65
191.10675	115
194.10616	86
195.07804	37
195.11717	121
196.08006	66
197.09637	134
197.13189	144
198.09216	56
198.10511	60
198.13202	42
199.11162	311
199.15038	162
200.06934	32
200.11129	189
200.14825	37
201.07730	48
201.12654	139
202.12241	33
207.11807	136
208.12322	59
209.09506	34
209.13261	182
210.09758	48
210.13281	107
211.11222	188
211.14770	56
212.11544	162
213.12785	93
215.10698	45
219.12031	32
220.11996	137
221.13207	79
222.13548	53
223.10734	32
223.14938	168
224.12449	103
224.14933	94
225.12620	300
225.16513	187
226.13124	112
226.16566	67
227.14256	339
228.14284	92
232.12339	36
233.13478	39
234.13558	78
235.10791	72
235.14657	131
236.10897	31
236.15237	68
237.12696	111
237.16324	84
238.12764	147
238.15771	71
239.13709	239
239.17898	169
240.10776	49
240.14284	150
241.15756	88
242.11685	52
243.12082	40
243.13840	45
243.17306	44
245.13129	64
247.14804	49
249.12036	50
249.16538	251
250.12976	94
250.16779	63
251.13751	64
251.18263	54
252.14294	219
253.11233	37
253.15300	221
254.11761	62
254.15949	99
255.11522	43
255.14046	97
255.16157	46
256.13217	46
256.17726	46
257.15389	93
258.14722	218
260.15376	51
263.14187	58
264.14239	70
265.13966	68
265.16054	53
266.14810	227
267.15710	33
267.17561	809
268.13328	146
268.16975	241
269.18724	66
270.14729	78
271.14729	57
271.17152	133
273.16659	51
275.14302	79
276.14211	63
278.12595	37
278.15768	89
280.16840	145
283.15102	151
285.18491	256
286.17647	30
286.19055	53
287.18107	38
289.15828	59
290.15080	113
291.16389	67
292.17173	68
294.14757	71
294.18722	67
295.15285	44
295.17181	39
295.19212	102
300.14373	30
302.16100	95
304.13496	38
305.17602	95
306.18823	55
308.16436	134
310.18406	42
312.17739	36
313.18260	57
316.17136	35
322.17674	56
323.18541	109
328.16722	36
328.20212	79
330.18389	63
333.16823	41
334.17836	38
338.17246	87
341.19654	41
346.21607	104
348.19163	62
356.19933	76
370.25013	33
371.24280	50
372.23290	186
374.20985	84
375.21512	41
386.24685	111
387.24443	42
388.25777	80
391.24819	44
396.23537	148
414.24322	150
415.24582	100
432.25232	56
