Mass spectrum: Truncaquinone A; ESI-Q-TOF; MS2; CE:46.2; [M+H]+
Name: Truncaquinone A
Class: Prenylquinones; Natural Product
Formula: C28H24N2O4
Exact mass: 452.1736
SMILES: C1(=C(C(C(=C(C1=O)C=2C=3C=CC=CC3NC2)OC)=O)C=4C=5C=CC=CC5NC4C(C)(C=C)C)O
InChI: InChI=1S/C28H24N2O4/c1-5-28(2,3)27-20(16-11-7-9-13-19(16)30-27)22-24(32)23(31)21(26(34-4)25(22)33)17-14-29-18-12-8-6-10-15(17)18/h5-14,29-30,32H,1H2,2-4H3
Instrument: Bruker timsTOF
Instrument type: timsTOF
Ms type: MS2
Ion mode: POSITIVE
Collision energy: 46.2
Precursor m/z: 453.18088371294994
m/z	relative intensity
69.06899	83
130.06556	39
157.05202	93
158.05259	109
172.07554	35
182.06064	48
183.06509	32
184.08008	42
210.05557	74
212.07047	33
238.05195	39
240.06959	45
285.10390	48
286.10708	31
294.07595	45
313.09688	115
314.10475	206
315.10725	41
323.11805	39
326.10439	57
339.11250	43
341.09176	153
342.09965	999
343.10322	215
350.10490	43
351.11233	43
354.10124	32
356.11382	35
357.12338	277
358.12651	73
367.10699	61
369.08743	613
370.09276	285
371.09753	52
378.09974	67
379.10758	78
380.11510	43
383.10240	91
384.11013	216
385.11609	112
395.10271	100
395.13964	38
396.11008	381
397.11427	103
411.13397	153
412.13779	50
423.13375	49
438.15663	37
