Mass spectrum: (3aS,8R)-3a,5,5,8-tetramethyl-3,3a,4,5,7,8-hexahydro-1Hcyclopenta[de]isochromen-1-one; ESI-Q-TOF; MS2; CE:35.112; [M+H]+
Name: (3aS,8R)-3a,5,5,8-tetramethyl-3,3a,4,5,7,8-hexahydro-1Hcyclopenta[de]isochromen-1-one
Class: Dihydropyranones; Natural Product
Formula: C15H20O2
Exact mass: 232.1463
SMILES: C1(C2=C3C(=CC1)C(CC3(COC2=O)C)(C)C)C
InChI: InChI=1S/C15H20O2/c1-9-5-6-10-12-11(9)13(16)17-8-15(12,4)7-14(10,2)3/h6,9H,5,7-8H2,1-4H3/t9?,15-/m1/s1
Instrument: ESI-Q-TOF
Instrument type: ESI-Q-TOF
Ms type: MS2
Ion mode: POSITIVE
Collision energy: 35.112
Precursor m/z: 233.15360633602998
m/z	relative intensity
55.05283	38
69.06872	37
79.05491	46
91.05540	335
92.05757	32
93.06981	106
95.08583	46
103.05420	90
105.07340	812
106.07212	101
107.08551	77
115.05409	136
116.06298	48
117.07317	358
118.07507	48
119.08677	999
120.08874	139
121.06374	86
121.10190	40
129.07200	55
130.07701	69
131.04910	107
131.08470	420
132.09179	81
133.10135	352
134.10526	68
135.04338	35
143.08518	85
144.09308	95
145.06884	476
145.10101	671
146.07080	77
146.10490	132
147.11451	301
148.12307	47
149.06009	282
155.08590	40
157.10187	159
158.07185	30
158.10980	158
159.08192	262
159.11650	340
160.08470	44
160.12036	48
161.12979	53
163.07545	358
164.08024	61
172.12455	121
173.09635	100
173.12995	208
174.13906	60
177.09093	130
186.10245	31
187.14815	220
188.15089	41
189.16893	83
191.10704	35
215.14314	54
233.15398	50
