Mass spectrum: (3aS)-6-hydroxy-3a,5,5,8-tetramethyl-3,3a,4,5-tetrahydro-1Hcyclopenta[de]isochromen1-one; ESI-Q-TOF; MS2; CE:35.112; [M+H]+
Name: (3aS)-6-hydroxy-3a,5,5,8-tetramethyl-3,3a,4,5-tetrahydro-1Hcyclopenta[de]isochromen1-one
Class: 2-benzopyrans; Natural Product
Formula: C15H18O3
Exact mass: 246.1256
SMILES: C1(=C(C=C2C3=C1C(OCC3(CC2(C)C)C)=O)O)C
InChI: InChI=1S/C15H18O3/c1-8-10(16)5-9-12-11(8)13(17)18-7-15(12,4)6-14(9,2)3/h5,16H,6-7H2,1-4H3/t15-/m1/s1
Instrument: ESI-Q-TOF
Instrument type: ESI-Q-TOF
Ms type: MS2
Ion mode: POSITIVE
Collision energy: 35.112
Precursor m/z: 247.13287089117003
m/z	relative intensity
57.06898	57
91.05455	52
105.07101	108
117.06934	39
119.08599	78
121.06494	164
128.06516	119
129.06911	67
131.08553	67
132.05981	57
133.06612	53
133.10120	148
135.08109	35
141.07023	65
142.07816	64
143.08348	153
144.05650	49
144.09203	49
145.06411	106
145.10153	72
146.07087	305
147.08019	276
155.08565	82
156.09248	49
157.06843	49
157.10060	43
158.07680	102
158.10931	55
159.08022	460
160.08909	151
161.09396	999
162.09894	117
165.05314	51
170.10907	59
171.07998	98
172.08767	386
173.05606	34
173.10035	450
174.10319	187
175.11128	69
177.05525	65
185.06270	33
185.13450	31
186.10373	255
187.08064	300
187.11460	449
188.07874	62
188.11367	107
191.07166	60
196.08677	31
199.07530	45
200.08254	34
201.12833	265
202.13387	62
203.13923	53
205.08620	102
211.11106	34
214.09901	77
218.09324	36
229.12270	475
230.12988	105
247.13575	39
