Mass spectrum: 5-methyl mellein; ESI-Q-TOF; MS2; CE:46.2; [M+H]+
Name: 5-methyl mellein
Class: 2-benzopyrans; Natural Product
Formula: C11H12O3
Exact mass: 192.0786
SMILES: C1=CC(=C2C(=C1C)CC(OC2=O)C)O
InChI: InChI=1S/C11H12O3/c1-6-3-4-9(12)10-8(6)5-7(2)14-11(10)13/h3-4,7,12H,5H2,1-2H3
Instrument: Bruker timsTOF
Instrument type: timsTOF
Ms type: MS2
Ion mode: POSITIVE
Collision energy: 46.2
Precursor m/z: 193.08592069779
m/z	relative intensity
91.05457	467
92.05752	87
103.05397	68
104.06179	108
105.06957	38
107.04708	542
108.05304	54
117.06960	264
119.05076	81
119.08540	633
120.08865	55
123.08055	72
127.05334	91
128.06098	240
129.07308	190
131.04914	133
132.05664	999
133.06306	134
145.06405	95
146.07268	70
147.08112	995
148.08364	90
157.06569	62
160.05161	41
175.07538	290
176.08010	39
