Mass spectrum: Rickenyl D/E; ESI-Q-TOF; MS2; CE:40.656; [M+H]+
Name: Rickenyl D/E
Class: P-terphenyls; Natural Product
Formula: C21H20O6
Exact mass: 368.1260
SMILES: C1(=C(C(=C(C(=C1O)C2=CC=C(C=C2)O)O)OC)C3=CC=C(C=C3)OC)OC
InChI: InChI=1S/C21H20O6/c1-25-15-10-6-13(7-11-15)17-20(26-2)18(23)16(19(24)21(17)27-3)12-4-8-14(22)9-5-12/h4-11,22-24H,1-3H3
Instrument: ESI-Q-TOF
Instrument type: ESI-Q-TOF
Ms type: MS2
Ion mode: POSITIVE
Collision energy: 40.656
Precursor m/z: 369.13326481443
m/z	relative intensity
175.03926	67
221.06317	30
231.06581	39
233.05935	30
236.08325	57
237.08820	37
244.03741	37
247.07529	73
248.08254	114
249.05532	73
249.09190	63
250.06350	42
251.07213	33
251.10685	78
260.04288	32
261.05252	46
263.07107	38
264.07793	339
265.07911	89
275.06997	250
276.07618	67
277.05412	110
277.08644	34
278.09171	34
279.10145	124
288.04149	31
289.04944	521
290.05271	103
291.06432	76
292.07272	735
293.07691	147
302.05711	55
303.06516	638
304.07257	999
305.04459	97
305.07642	216
306.08791	168
306.09985	30
307.09642	742
308.09929	140
316.07304	35
317.08088	65
318.08883	371
319.05832	191
319.09147	69
320.06825	360
321.07366	169
321.11144	43
324.09911	80
334.08375	167
335.08796	636
336.09654	263
337.07274	68
337.09965	47
349.10604	87
352.09481	65
353.10282	30
