Mass spectrum: Rickiol A; ESI-Q-TOF; MS2; CE:46.2; [M+H]+
Name: Rickiol A
Class: ; Natural Product
Formula: C24H44O6
Exact mass: 428.3138
SMILES: C1CCCCCCCCCCC(OC(C=CC(O)CC(O)C1)=O)CC(CC(C)O)O
InChI: InChI=1S/C24H44O6/c1-19(25)16-22(28)18-23-13-11-9-7-5-3-2-4-6-8-10-12-20(26)17-21(27)14-15-24(29)30-23/h14-15,19-23,25-28H,2-13,16-18H2,1H3
Instrument: Bruker timsTOF
Instrument type: timsTOF
Ms type: MS2
Ion mode: POSITIVE
Collision energy: 46.2
Precursor m/z: 411.31050090388993
m/z	relative intensity
55.01705	44
55.05324	127
67.05369	275
69.06901	183
71.04831	99
73.02765	63
77.03845	66
79.05349	237
81.03246	47
81.06898	599
82.07366	42
83.04826	47
83.08485	75
85.06377	37
91.05388	277
93.06986	399
94.07327	89
95.04607	42
95.08971	999
96.08851	50
97.06818	62
97.10062	90
99.04103	548
99.07929	37
100.04828	37
101.02268	495
105.06931	132
107.08517	366
109.10036	524
110.10444	49
111.04409	198
111.11617	31
117.06857	70
119.08444	144
121.10001	331
122.10401	43
123.11656	131
129.07266	54
131.08445	137
133.10301	247
135.07904	111
135.11887	258
137.09538	53
139.07376	30
143.08429	43
145.10036	102
147.08040	36
147.11699	126
149.13201	58
157.10407	33
159.11521	108
160.12156	39
161.13181	62
163.11120	33
163.14721	64
165.09139	34
171.11778	37
173.12952	53
175.14710	35
177.08949	55
177.12703	39
