Mass spectrum: Rickenyl C; ESI-Q-TOF; MS2; CE:40.656; [M+H]+
Name: Rickenyl C
Class: P-terphenyls; Natural Product
Formula: C22H22O6
Exact mass: 382.1416
SMILES: C1(=C(C(=C(C(=C1O)C2=CC=C(C=C2)OC)O)OC)C3=CC=C(C=C3)OC)OC
InChI: InChI=1S/C22H22O6/c1-25-15-9-5-13(6-10-15)17-19(23)21(27-3)18(22(28-4)20(17)24)14-7-11-16(26-2)12-8-14/h5-12,23-24H,1-4H3
Instrument: ESI-Q-TOF
Instrument type: ESI-Q-TOF
Ms type: MS2
Ion mode: POSITIVE
Collision energy: 40.656
Precursor m/z: 383.14891487889
m/z	relative intensity
183.04529	39
245.04449	46
263.10660	33
276.07854	97
277.08448	38
288.08064	118
289.08503	35
291.10458	355
292.10465	73
303.06546	56
304.07158	220
305.07824	100
307.09571	64
318.08908	41
319.09419	319
320.06715	35
320.10424	126
321.07767	54
335.09201	999
336.09974	319
353.10136	342
354.10479	52
368.12609	290
369.13011	97
