Mass spectrum: (3aS)-6-hydroxy-3a,5,5,8-tetramethyl-3,3a,4,5-tetrahydro-1Hcyclopenta[de]isochromen1-one; ESI-Q-TOF; MS2; CE:35.112; [M+H]+
Name: (3aS)-6-hydroxy-3a,5,5,8-tetramethyl-3,3a,4,5-tetrahydro-1Hcyclopenta[de]isochromen1-one
Class: 2-benzopyrans; Natural Product
Formula: C15H18O3
Exact mass: 246.1256
SMILES: C1(=C(C=C2C3=C1C(OCC3(CC2(C)C)C)=O)O)C
InChI: InChI=1S/C15H18O3/c1-8-10(16)5-9-12-11(8)13(17)18-7-15(12,4)6-14(9,2)3/h5,16H,6-7H2,1-4H3/t15-/m1/s1
Instrument: Bruker timsTOF
Instrument type: timsTOF
Ms type: MS2
Ion mode: POSITIVE
Collision energy: 35.112
Precursor m/z: 229.12230620711003
m/z	relative intensity
91.05447	49
105.07033	47
115.05436	52
117.07000	43
119.08596	33
121.06311	52
128.06240	67
129.06773	96
130.07665	32
131.08539	104
141.07199	110
142.07591	54
143.08568	124
144.05942	89
144.09293	60
145.06996	129
145.10022	126
146.07052	67
153.07102	58
154.07750	45
155.08600	94
157.06485	136
158.07267	288
158.11564	81
159.07763	395
159.11876	116
160.08296	81
168.09351	46
169.10111	75
171.08056	356
172.08829	999
173.09559	437
174.09611	47
181.06754	47
185.09978	94
186.10408	435
187.07520	83
187.11154	522
188.11245	73
196.08874	55
197.09726	30
199.08146	119
199.11286	39
200.08355	30
201.12735	225
202.13286	41
211.11251	34
214.10208	91
229.12288	246
230.12651	42
