Mass spectrum: Macrocarpon A; ESI-Q-TOF; MS2; CE:40.656; [M+H]+
Name: Macrocarpon A
Class: unavailable
Formula: CH4
Exact mass: 16
SMILES: C
InChI: InChI=1S/CH4/h1H4
Instrument: ESI-Q-TOF
Instrument type: ESI-Q-TOF
Ms type: MS2
Ion mode: POSITIVE
Collision energy: 40.656
Precursor m/z: 313.06825887082005
m/z	relative intensity
61.54164	80
162.22579	89
182.95203	999
197.97358	85
