Mass spectrum: Cohaerin C; ESI-Q-TOF; MS2; CE:46.2; [M+H]+
Name: Cohaerin C
Class: Cyclohexenones; Natural Product
Formula: C28H34O7
Exact mass: 482.2305
SMILES: CCCCCCC(C(C1C(OC2(C1C=3C(=CC2=O)C=C(OC3)C=4C(CC(CC4C)O)=O)C)=O)=O)C
InChI: InChI=1S/C28H34O7/c1-5-6-7-8-9-15(2)26(32)24-25-19-14-34-21(23-16(3)10-18(29)13-20(23)30)11-17(19)12-22(31)28(25,4)35-27(24)33/h11-12,14-15,18,24-25,29H,5-10,13H2,1-4H3/t15?,18?,24?,25?,28-/m0/s1
Instrument: ESI-Q-TOF
Instrument type: ESI-Q-TOF
Ms type: MS2
Ion mode: POSITIVE
Collision energy: 46.2
Precursor m/z: 483.23772988524996
m/z	relative intensity
57.07114	94
71.08557	95
225.09229	40
237.09098	30
251.11066	34
253.08609	46
255.09408	51
269.11727	480
270.12135	82
271.09702	49
279.10271	34
281.08055	109
282.08653	38
283.09618	96
297.11203	651
298.11607	135
299.09140	47
299.12576	56
301.10786	40
315.12252	171
316.12537	35
325.10694	361
326.11020	75
343.11759	999
343.13917	42
344.12052	204
411.25285	111
439.21096	37
439.24752	68
483.23757	425
484.24124	135
