Mass spectrum: Multiformin B; ESI-Q-TOF; MS2; CE:40.656; [M+H]+
Name: Multiformin B
Class: Cyclohexenones; Natural Product
Formula: C24H24O6
Exact mass: 408.1573
SMILES: C1(C2(C(C=3C(=C1)C=C(OC3)C4C(=O)C=CCC4C)=C(C(O2)=O)C(=O)C(CC)C)C)=O
InChI: InChI=1S/C24H24O6/c1-5-12(2)22(27)20-21-15-11-29-17(19-13(3)7-6-8-16(19)25)9-14(15)10-18(26)24(21,4)30-23(20)28/h6,8-13,19H,5,7H2,1-4H3
Instrument: ESI-Q-TOF
Instrument type: ESI-Q-TOF
Ms type: MS2
Ion mode: POSITIVE
Collision energy: 40.656
Precursor m/z: 409.16456494334994
m/z	relative intensity
57.06880	79
209.09522	33
223.11235	38
237.09188	47
238.09814	34
241.08918	140
251.10854	119
252.11599	85
253.08558	31
253.12648	35
279.10141	178
280.10496	192
281.11924	105
291.17723	45
293.12198	36
297.11217	289
298.11638	35
307.09904	136
308.10146	36
309.11258	37
319.17299	49
325.10487	272
326.11420	88
337.17864	999
338.18346	198
339.18807	56
365.17658	33
409.16438	381
410.16929	138
