Mass spectrum: Daldinal B; ESI-Q-TOF; MS2; CE:40.656; [M+H]+
Name: Daldinal B
Class: Benzophenones; Natural Product
Formula: C18H18O6
Exact mass: 330.1103
SMILES: C1(=CC(=CC(=C1OC)C(C2=CC(=CC(=C2C=O)OC)O)=O)C)OC
InChI: InChI=1S/C18H18O6/c1-10-5-13(18(24-4)16(6-10)23-3)17(21)12-7-11(20)8-15(22-2)14(12)9-19/h5-9,20H,1-4H3
Instrument: ESI-Q-TOF
Instrument type: ESI-Q-TOF
Ms type: MS2
Ion mode: POSITIVE
Collision energy: 40.656
Precursor m/z: 331.11761474996996
m/z	relative intensity
123.08046	89
151.04677	40
151.07559	220
165.06341	57
181.05046	48
181.06594	43
183.08088	48
185.06006	74
196.05198	31
197.06213	39
198.06739	54
200.08159	31
209.06379	37
210.06791	133
211.07478	225
212.08067	76
213.05437	356
214.06160	66
223.07468	38
224.04605	45
225.05669	53
226.06215	104
227.07040	115
228.08275	548
229.08331	91
237.05410	56
238.06229	323
239.06817	271
240.07644	83
241.04926	477
241.08405	70
242.05543	80
243.09948	40
252.04092	36
253.04526	50
253.08655	67
255.06514	99
256.07347	999
257.07798	144
266.05759	66
267.06503	197
268.07068	55
269.04519	347
270.04771	85
270.09277	40
271.09661	338
272.10060	56
281.08102	107
282.08763	73
283.05860	35
284.06730	370
285.07282	56
299.09418	209
300.09544	37
