Mass spectrum: Fragirubrin A; ESI-Q-TOF; MS2; CE:46.2; [M+H]+
Name: Fragirubrin A
Class: ; Natural Product
Formula: C31H46O7
Exact mass: 530.3244
SMILES: C1(C(C(C=2C(=C1)C=C(OC2)CC(C)OC(=O)C)=O)(C)OC(=O)CCCCCCCCCCCCCCC)=O
InChI: InChI=1S/C31H46O7/c1-5-6-7-8-9-10-11-12-13-14-15-16-17-18-29(34)38-31(4)28(33)21-25-20-26(19-23(2)37-24(3)32)36-22-27(25)30(31)35/h20-23H,5-19H2,1-4H3/t23?,31-/m1/s1
Instrument: Bruker timsTOF
Instrument type: timsTOF
Ms type: MS2
Ion mode: POSITIVE
Collision energy: 46.2
Precursor m/z: 553.3135745217801
m/z	relative intensity
187.07866	133
211.03683	45
215.06701	459
216.07326	47
237.05207	45
238.05925	45
240.04089	36
255.06271	149
271.05798	67
297.07151	69
298.08043	70
300.06096	37
315.08996	353
316.08633	58
493.29268	642
494.29747	254
495.29465	47
553.31331	999
554.31733	355
555.31889	74
