Mass spectrum: Cohaerin G; ESI-Q-TOF; MS2; CE:46.2; [M+H]+
Name: Cohaerin G
Class: Cyclohexenones; Natural Product
Formula: C28H36O7
Exact mass: 484.2461
SMILES: CCCCCCC(C(C1C(OC2(C1C=3C(=CC2=O)C=C(OC3)C4C(CC(CC4C)O)=O)C)=O)=O)C
InChI: InChI=1S/C28H36O7/c1-5-6-7-8-9-15(2)26(32)24-25-19-14-34-21(23-16(3)10-18(29)13-20(23)30)11-17(19)12-22(31)28(25,4)35-27(24)33/h11-12,14-16,18,23-25,29H,5-10,13H2,1-4H3/t15?,16?,18?,23?,24?,25?,28-/m0/s1
Instrument: ESI-Q-TOF
Instrument type: ESI-Q-TOF
Ms type: MS2
Ion mode: POSITIVE
Collision energy: 46.2
Precursor m/z: 485.25337994971
m/z	relative intensity
57.07014	73
71.08567	85
241.08684	39
253.12348	45
257.11777	53
271.13272	472
272.13528	92
273.11272	41
281.11806	43
284.10298	38
285.11104	89
286.11625	36
299.12759	599
300.13449	186
301.14048	62
303.12095	70
313.18082	35
317.13713	143
318.14184	31
327.12329	426
328.12736	116
343.11920	53
345.13290	999
346.13735	242
347.13839	37
413.23395	53
413.26838	99
414.23480	35
414.27205	42
415.23885	56
441.26416	61
485.25343	620
486.25780	231
487.26311	53
