Mass spectrum: Daldinin C; ESI-Q-TOF; MS2; CE:40.656; [M+H]+
Name: Daldinin C
Class: unavailable
Formula: CH4
Exact mass: 16
SMILES: C
InChI: InChI=1S/CH4/h1H4
Instrument: Bruker timsTOF
Instrument type: timsTOF
Ms type: MS2
Ion mode: POSITIVE
Collision energy: 40.656
Precursor m/z: 435.16495886660994
m/z	relative intensity
55.05437	296
83.04901	594
125.02553	55
131.08792	43
141.06960	30
145.06463	45
145.09996	40
149.02451	30
151.03896	57
153.01788	130
159.08133	133
161.05977	61
163.03972	112
165.05300	106
169.06578	31
173.09627	73
175.03850	83
176.04810	35
177.01935	47
177.05292	41
177.09566	75
187.07512	228
189.05486	134
190.02541	62
191.03436	399
191.07403	43
192.03825	119
193.05269	171
195.02784	82
201.09066	146
203.06918	320
204.07300	43
205.04909	205
205.08713	227
207.06461	100
209.04321	90
211.07546	40
214.06061	34
215.07032	115
217.05040	57
219.02769	49
219.10270	79
229.08712	360
230.08993	71
231.07631	759
232.07110	184
233.04458	150
233.08536	999
234.04797	43
234.08584	85
238.04671	42
247.09573	246
248.10060	56
249.07591	38
250.08412	349
250.09873	50
251.09212	689
252.09656	93
257.08067	416
258.08884	60
265.10914	43
275.09146	777
276.09523	111
293.10243	455
294.10496	80
