Mass spectrum: Rubiginosin B; ESI-Q-TOF; MS2; CE:40.656; [M+H]+
Name: Rubiginosin B
Class: unavailable
Formula: CH4
Exact mass: 16
SMILES: C
InChI: InChI=1S/CH4/h1H4
Instrument: Bruker timsTOF
Instrument type: timsTOF
Ms type: MS2
Ion mode: POSITIVE
Collision energy: 40.656
Precursor m/z: 425.12068836786
m/z	relative intensity
173.02165	241
257.07945	80
275.08972	999
276.09389	187
