Mass spectrum: 6"-hidroxymitorubrinol acetate; ESI-Q-TOF; MS2; CE:46.2; [M+H]+
Name: 6"-hidroxymitorubrinol acetate
Class: ; Natural Product
Formula: C23H20O10
Exact mass: 456.1056
SMILES: C1=C(C(=C(C(=C1O)C(OC2(C(C=3C(=CC2=O)C=C(OC3)C=CCOC(C)=O)=O)C)=O)C)O)O
InChI: InChI=1S/C23H20O10/c1-11-19(16(25)9-17(26)20(11)28)22(30)33-23(3)18(27)8-13-7-14(5-4-6-31-12(2)24)32-10-15(13)21(23)29/h4-5,7-10,25-26,28H,6H2,1-3H3/b5-4+/t23-/m0/s1
Instrument: ESI-Q-TOF
Instrument type: ESI-Q-TOF
Ms type: MS2
Ion mode: POSITIVE
Collision energy: 46.2
Precursor m/z: 479.0948675426
m/z	relative intensity
187.07587	33
188.04642	66
189.01561	70
189.05531	189
210.02809	157
253.04914	35
269.04214	316
270.04654	90
298.04249	135
313.06761	999
314.07246	86
