Mass spectrum: Cochliodinol; ESI-Q-TOF; MS2; CE:30.0; [M+H]+
Name: Cochliodinol
Class: unavailable
Formula: CH4
Exact mass: 16
SMILES: C
InChI: InChI=1S/CH4/h1H4
Instrument: Bruker timsTOF
Instrument type: timsTOF
Ms type: MS2
Ion mode: POSITIVE
Collision energy: 30.0
Precursor m/z: 507.2278339063299
m/z	relative intensity
343.10743	57
370.09512	77
371.10307	999
371.12554	32
372.10572	196
383.10327	139
384.10522	34
410.16286	57
438.15763	208
439.16566	904
440.16844	235
451.16544	105
507.22737	439
508.23097	142
