Mass spectrum: Truncaquinone A; ESI-Q-TOF; MS2; CE:46.2; [M+H]+
Name: Truncaquinone A
Class: Prenylquinones; Natural Product
Formula: C28H24N2O4
Exact mass: 452.1736
SMILES: C1(=C(C(C(=C(C1=O)C=2C=3C=CC=CC3NC2)OC)=O)C=4C=5C=CC=CC5NC4C(C)(C=C)C)O
InChI: InChI=1S/C28H24N2O4/c1-5-28(2,3)27-20(16-11-7-9-13-19(16)30-27)22-24(32)23(31)21(26(34-4)25(22)33)17-14-29-18-12-8-6-10-15(17)18/h5-14,29-30,32H,1H2,2-4H3
Instrument: Bruker timsTOF
Instrument type: timsTOF
Ms type: MS2
Ion mode: POSITIVE
Collision energy: 46.2
Precursor m/z: 475.16282796272
m/z	relative intensity
168.04198	42
169.04943	30
192.04325	36
233.04458	82
249.04105	47
260.03438	149
261.03668	221
291.09151	46
303.09051	115
304.09604	84
305.10370	84
319.08344	45
320.09203	46
333.09797	31
334.10051	36
335.07825	408
336.08596	80
349.09247	62
350.09860	49
363.07388	999
364.07684	299
377.09012	117
378.09759	632
379.10101	151
380.10327	46
406.09194	246
407.09720	118
