Mass spectrum: (3aS)-7-hydroxy-3a,5,5,8-tetramethyl-3,3a,4,5-tetrahydro-1Hcyclopenta[de]isochromen-1-one; ESI-Q-TOF; MS2; CE:35.112; [M+H]+
Name: (3aS)-7-hydroxy-3a,5,5,8-tetramethyl-3,3a,4,5-tetrahydro-1Hcyclopenta[de]isochromen-1-one
Class: 2-benzopyrans; Natural Product
Formula: C15H18O2
Exact mass: 230.1307
SMILES: C1(=CC=C2C3=C1C(OCC3(CC2(C)C)C)=O)C
InChI: InChI=1S/C15H18O2/c1-9-5-6-10-12-11(9)13(16)17-8-15(12,4)7-14(10,2)3/h5-6H,7-8H2,1-4H3/t15-/m1/s1
Instrument: Bruker timsTOF
Instrument type: timsTOF
Ms type: MS2
Ion mode: POSITIVE
Collision energy: 35.112
Precursor m/z: 247.13287089117003
m/z	relative intensity
57.06949	32
91.05445	84
105.07210	139
115.05427	49
117.07078	34
119.08995	64
121.06464	108
129.06964	32
131.08547	148
133.10022	155
141.07257	95
143.08522	131
145.06438	114
145.10089	63
146.07206	276
147.08016	272
155.08744	50
158.07296	163
159.07991	462
160.08759	79
161.09627	999
162.10002	73
169.06559	38
172.08842	481
173.09951	295
174.10307	102
175.08024	104
186.06121	69
186.10444	164
187.07560	729
187.11524	649
188.08056	112
188.11637	77
191.07153	242
192.07480	32
199.07437	58
201.09297	54
201.12707	548
202.12900	110
203.14249	44
205.08649	284
206.09180	31
211.11204	69
215.10424	40
218.09431	38
229.12266	778
230.12387	117
247.13315	90
