Mass spectrum: Cohaerin G; ESI-Q-TOF; MS2; CE:46.2; [M+H]+
Name: Cohaerin G
Class: Cyclohexenones; Natural Product
Formula: C28H36O7
Exact mass: 484.2461
SMILES: CCCCCCC(C(C1C(OC2(C1C=3C(=CC2=O)C=C(OC3)C4C(CC(CC4C)O)=O)C)=O)=O)C
InChI: InChI=1S/C28H36O7/c1-5-6-7-8-9-15(2)26(32)24-25-19-14-34-21(23-16(3)10-18(29)13-20(23)30)11-17(19)12-22(31)28(25,4)35-27(24)33/h11-12,14-16,18,23-25,29H,5-10,13H2,1-4H3/t15?,16?,18?,23?,24?,25?,28-/m0/s1
Instrument: ESI-Q-TOF
Instrument type: ESI-Q-TOF
Ms type: MS2
Ion mode: POSITIVE
Collision energy: 46.2
Precursor m/z: 485.25337994971
m/z	relative intensity
57.07051	110
71.08690	118
241.08608	43
253.12287	44
257.11777	45
271.13279	476
272.13646	80
281.12395	47
284.10426	38
285.11182	80
299.12787	681
300.13304	148
301.14161	40
303.12203	38
313.18389	37
317.13852	148
318.14092	30
327.12283	387
328.12620	72
345.13317	999
345.15261	59
346.13668	180
413.26834	111
441.26431	61
485.25353	477
486.25726	150
