Mass spectrum: Rickiol A; ESI-Q-TOF; MS2; CE:46.2; [M+H]+
Name: Rickiol A
Class: ; Natural Product
Formula: C24H44O6
Exact mass: 428.3138
SMILES: C1CCCCCCCCCCC(OC(C=CC(O)CC(O)C1)=O)CC(CC(C)O)O
InChI: InChI=1S/C24H44O6/c1-19(25)16-22(28)18-23-13-11-9-7-5-3-2-4-6-8-10-12-20(26)17-21(27)14-15-24(29)30-23/h14-15,19-23,25-28H,2-13,16-18H2,1H3
Instrument: ESI-Q-TOF
Instrument type: ESI-Q-TOF
Ms type: MS2
Ion mode: POSITIVE
Collision energy: 46.2
Precursor m/z: 429.32106558794993
m/z	relative intensity
53.03787	34
55.05486	63
67.05521	447
69.06895	90
71.04887	58
79.05633	162
81.06937	579
83.05002	33
83.08713	45
91.05400	130
93.06981	335
95.08531	999
96.08907	123
97.09645	38
99.04391	209
99.07903	80
101.02385	56
105.06924	187
107.04876	67
107.08443	334
109.10035	343
110.10702	51
117.06924	39
119.08543	185
121.10006	357
123.11572	142
129.06850	39
131.08636	46
133.10068	198
135.11627	380
145.10153	85
146.10573	47
147.11672	74
149.12611	158
161.13125	127
173.13498	65
187.14929	56
189.12797	39
189.16499	71
