Mass spectrum: 5-methyl mellein; ESI-Q-TOF; MS2; CE:46.2; [M+H]+
Name: 5-methyl mellein
Class: 2-benzopyrans; Natural Product
Formula: C11H12O3
Exact mass: 192.0786
SMILES: C1=CC(=C2C(=C1C)CC(OC2=O)C)O
InChI: InChI=1S/C11H12O3/c1-6-3-4-9(12)10-8(6)5-7(2)14-11(10)13/h3-4,7,12H,5H2,1-2H3
Instrument: ESI-Q-TOF
Instrument type: ESI-Q-TOF
Ms type: MS2
Ion mode: POSITIVE
Collision energy: 46.2
Precursor m/z: 175.07535601373
m/z	relative intensity
77.03853	213
79.05405	58
91.05411	470
102.04776	135
103.05437	274
104.06142	242
107.04960	468
108.05248	46
114.04586	68
115.05443	203
117.07163	176
127.05470	311
128.06208	999
129.07018	194
131.04893	761
132.05953	362
155.05949	43
