Mass spectrum: 6"-hidroxymitorubrinol; ESI-Q-TOF; MS2; CE:46.2; [M+H]+
Name: 6"-hidroxymitorubrinol
Class: ; Natural Product
Formula: C21H18O9
Exact mass: 414.0951
SMILES: C1=C(C(=C(C(=C1O)C(OC2(C(C=3C(=CC2=O)C=C(OC3)C=CCO)=O)C)=O)C)O)O
InChI: InChI=1S/C21H18O9/c1-10-17(14(23)8-15(24)18(10)26)20(28)30-21(2)16(25)7-11-6-12(4-3-5-22)29-9-13(11)19(21)27/h3-4,6-9,22-24,26H,5H2,1-2H3/b4-3+/t21-/m0/s1
Instrument: Bruker timsTOF
Instrument type: timsTOF
Ms type: MS2
Ion mode: POSITIVE
Collision energy: 46.2
Precursor m/z: 437.08430285854
m/z	relative intensity
228.03914	164
243.06205	35
256.03204	168
271.05768	999
272.06200	136
