Mass spectrum: Truncaquinone B; ESI-Q-TOF; MS2; CE:46.2; [M+H]+
Name: Truncaquinone B
Class: Prenylquinones; Natural Product
Formula: C27H22N2O4
Exact mass: 438.1580
SMILES: C1(=C(C(C(=C(C1=O)C=2C=3C=CC=CC3NC2)O)=O)C=4C=5C=CC=CC5NC4C(C)(C=C)C)O
InChI: InChI=1S/C27H22N2O4/c1-4-27(2,3)26-19(15-10-6-8-12-18(15)29-26)21-24(32)22(30)20(23(31)25(21)33)16-13-28-17-11-7-5-9-14(16)17/h4-13,28-30,33H,1H2,2-3H3
Instrument: Bruker timsTOF
Instrument type: timsTOF
Ms type: MS2
Ion mode: POSITIVE
Collision energy: 46.2
Precursor m/z: 439.16523364848996
m/z	relative intensity
69.07050	162
130.06451	77
157.05178	56
158.05982	532
159.06284	52
170.05994	89
186.05401	36
196.03904	30
198.05602	94
210.05670	32
226.05088	43
259.12273	66
269.10792	68
271.11977	50
287.11922	30
297.10184	59
299.11871	70
312.09276	32
314.10854	69
315.11633	145
316.11646	36
325.09617	42
327.11276	170
328.11678	39
341.10573	32
341.11536	64
342.10010	170
342.12516	54
343.10733	999
344.11043	214
351.11169	42
352.10726	36
353.09261	36
355.10577	44
370.09516	232
370.11915	34
371.10186	533
372.10583	157
383.10190	63
397.11760	59
