Mass spectrum: Cohaerin H; ESI-Q-TOF; MS2; CE:46.2; [M+H]+
Name: Cohaerin H
Class: Meta cresols; Natural Product
Formula: C28H32O6
Exact mass: 464.2199
SMILES: CCCCCCC(C(C1C(OC2(C1C=3C(=CC2=O)C=C(OC3)C=4C(=CC=CC4C)O)C)=O)=O)C
InChI: InChI=1S/C28H32O6/c1-5-6-7-8-10-17(3)26(31)24-25-19-15-33-21(23-16(2)11-9-12-20(23)29)13-18(19)14-22(30)28(25,4)34-27(24)32/h9,11-15,17,24-25,29H,5-8,10H2,1-4H3/t17?,24?,25?,28-/m0/s1
Instrument: ESI-Q-TOF
Instrument type: ESI-Q-TOF
Ms type: MS2
Ion mode: POSITIVE
Collision energy: 46.2
Precursor m/z: 465.22716520118996
m/z	relative intensity
57.07234	162
71.08954	148
209.09552	44
223.11233	57
236.08389	31
237.09063	131
238.09883	44
241.08533	45
251.10642	586
252.10994	113
253.12151	45
264.07332	80
265.08544	104
279.10149	999
280.10755	214
281.11626	84
283.09617	62
292.07372	30
297.11186	234
298.11528	51
307.09626	347
308.09930	65
325.10668	843
326.10995	167
327.12037	69
393.24150	136
394.24507	43
421.23688	43
465.22684	264
466.23057	85
467.23886	31
