Mass spectrum: Daldinin E/F; ESI-Q-TOF; MS2; CE:46.2; [M+H]+
Name: Daldinin E/F
Class: Benzopyrans; Natural Product
Formula: C24H28O9
Exact mass: 460.1733
SMILES: C1(C(C(C=2C(=C1)C(C3(OC2)C(CCC(O3)C)O)OC(=O)C(=CC=CC)C)=O)(OC(C)=O)C)=O
InChI: InChI=1S/C24H28O9/c1-6-7-8-13(2)22(29)31-21-16-11-19(27)23(5,33-15(4)25)20(28)17(16)12-30-24(21)18(26)10-9-14(3)32-24/h6-8,11-12,14,18,21,26H,9-10H2,1-5H3/b7-6+,13-8+/t14?,18?,21?,23-,24-/m0/s1
Instrument: ESI-Q-TOF
Instrument type: ESI-Q-TOF
Ms type: MS2
Ion mode: POSITIVE
Collision energy: 46.2
Precursor m/z: 461.18060893106997
m/z	relative intensity
79.05346	99
81.07231	441
85.06332	47
109.06808	999
110.06809	54
153.01964	40
159.08085	37
163.03890	57
175.04010	41
179.03760	48
187.07615	76
189.05510	52
191.03420	231
192.03876	35
193.04955	236
194.05373	33
201.09156	70
203.07123	93
204.07593	53
205.05280	81
205.08638	83
207.03175	36
209.04658	74
215.07017	74
219.02772	38
219.10142	30
229.08452	230
231.06522	245
232.06963	79
233.04368	56
233.08155	297
234.08468	61
247.09655	212
250.08383	107
251.09442	294
252.09529	67
257.08189	104
275.09106	401
276.09598	72
293.10116	345
294.10607	55
311.11433	45
