Mass spectrum: Lenormandin G; ESI-Q-TOF; MS2; CE:46.2; [M+H]+
Name: Lenormandin G
Class: unavailable
Formula: CH4
Exact mass: 16
SMILES: C
InChI: InChI=1S/CH4/h1H4
Instrument: ESI-Q-TOF
Instrument type: ESI-Q-TOF
Ms type: MS2
Ion mode: POSITIVE
Collision energy: 46.2
Precursor m/z: 513.32106558795
m/z	relative intensity
161.05983	103
163.07603	31
189.05456	860
190.06429	118
191.06637	50
205.08588	89
207.06586	32
208.08359	150
209.07804	210
210.08593	32
215.07651	37
233.08097	999
234.09106	147
251.09151	956
252.10398	197
