Mass spectrum: Daldinal A; ESI-Q-TOF; MS2; CE:40.656; [M+H]+
Name: Daldinal A
Class: Benzophenones; Natural Product
Formula: C17H16O6
Exact mass: 316.0947
SMILES: C1(=CC(=CC(=C1O)C(C2=CC(=CC(=C2C=O)OC)O)=O)C)OC
InChI: InChI=1S/C17H16O6/c1-9-4-12(17(21)15(5-9)23-3)16(20)11-6-10(19)7-14(22-2)13(11)8-18/h4-8,19,21H,1-3H3
Instrument: Bruker timsTOF
Instrument type: timsTOF
Ms type: MS2
Ion mode: POSITIVE
Collision energy: 40.656
Precursor m/z: 317.10196468551
m/z	relative intensity
108.02060	36
108.05704	41
121.02833	31
123.04958	80
123.08043	90
136.05198	39
149.02343	58
151.03872	173
151.07507	218
167.04086	44
179.03136	999
180.04268	71
210.07513	44
211.07902	52
212.08374	59
213.05412	79
227.07355	53
227.10594	78
228.07730	125
238.06310	44
239.07026	55
241.04943	97
255.06732	45
256.07264	240
257.07027	50
267.06528	34
269.04508	64
271.09659	73
284.06775	82
299.09127	44
