Mass spectrum: Cohaerin E; ESI-Q-TOF; MS2; CE:46.2; [M+H]+
Name: Cohaerin E
Class: Annonaceous acetogenins; Natural Product
Formula: C28H30O6
Exact mass: 462.2042
SMILES: C1(C2(C(C=3C(=C1)C=C(OC3)C=4C(C)=CC=CC4O)=C(C(O2)=O)C(=O)C(CCCCCC)C)C)=O
InChI: InChI=1S/C28H30O6/c1-5-6-7-8-10-17(3)26(31)24-25-19-15-33-21(23-16(2)11-9-12-20(23)29)13-18(19)14-22(30)28(25,4)34-27(24)32/h9,11-15,17,29H,5-8,10H2,1-4H3
Instrument: ESI-Q-TOF
Instrument type: ESI-Q-TOF
Ms type: MS2
Ion mode: POSITIVE
Collision energy: 46.2
Precursor m/z: 485.19345938649997
m/z	relative intensity
343.05812	35
344.06534	999
345.06988	284
346.07556	45
