Mass spectrum: Brasilane A; ESI-Q-TOF; MS2; CE:46.2; [M+H]+
Name: Brasilane A
Class: N-acyl-alpha-hexosamines; Natural Product
Formula: C23H39NO6
Exact mass: 425.2777
SMILES: C1(CC(C2(C(C1)(C(CC2)C)[H])[H])=C(C)COC3OC(C(C(C3NC(C)=O)O)O)CO)(C)C
InChI: InChI=1S/C23H39NO6/c1-12-6-7-15-16(12)8-23(4,5)9-17(15)13(2)11-29-22-19(24-14(3)26)21(28)20(27)18(10-25)30-22/h12,15-16,18-22,25,27-28H,6-11H2,1-5H3,(H,24,26)/b17-13+/t12?,15-,16+,18?,19?,20?,21?,22?/m0/s1
Instrument: ESI-Q-TOF
Instrument type: ESI-Q-TOF
Ms type: MS2
Ion mode: POSITIVE
Collision energy: 46.2
Precursor m/z: 448.26695868097
m/z	relative intensity
69.06914	43
81.06990	55
95.08490	215
107.08647	128
109.10035	93
111.11817	69
121.10237	104
123.11637	103
124.03600	60
135.11745	168
143.02997	129
149.13229	183
163.14768	41
205.19480	37
224.05306	224
225.06054	45
226.07138	594
227.07201	90
242.06372	126
244.07830	999
245.08114	116
430.25831	122
448.26556	959
449.26861	294
450.27938	41
