Mass spectrum: Daldinal B; ESI-Q-TOF; MS2; CE:40.656; [M+H]+
Name: Daldinal B
Class: Benzophenones; Natural Product
Formula: C18H18O6
Exact mass: 330.1103
SMILES: C1(=CC(=CC(=C1OC)C(C2=CC(=CC(=C2C=O)OC)O)=O)C)OC
InChI: InChI=1S/C18H18O6/c1-10-5-13(18(24-4)16(6-10)23-3)17(21)12-7-11(20)8-15(22-2)14(12)9-19/h5-9,20H,1-4H3
Instrument: ESI-Q-TOF
Instrument type: ESI-Q-TOF
Ms type: MS2
Ion mode: POSITIVE
Collision energy: 40.656
Precursor m/z: 353.09955899974
m/z	relative intensity
263.03052	112
264.03581	32
278.05799	999
279.05831	216
280.06378	53
284.06873	33
291.06659	120
292.03489	47
293.08088	42
299.09170	91
306.05108	186
307.06063	300
321.07795	337
322.07877	70
