Mass spectrum: (3aS)-7-hydroxy-3a,5,5,8-tetramethyl-3,3a,4,5-tetrahydro-1Hcyclopenta[de]isochromen-1-one; ESI-Q-TOF; MS2; CE:46.2; [M+H]+
Name: (3aS)-7-hydroxy-3a,5,5,8-tetramethyl-3,3a,4,5-tetrahydro-1Hcyclopenta[de]isochromen-1-one
Class: 2-benzopyrans; Natural Product
Formula: C15H18O2
Exact mass: 230.1307
SMILES: C1(=CC=C2C3=C1C(OCC3(CC2(C)C)C)=O)C
InChI: InChI=1S/C15H18O2/c1-9-5-6-10-12-11(9)13(16)17-8-15(12,4)7-14(10,2)3/h5-6H,7-8H2,1-4H3/t15-/m1/s1
Instrument: Bruker timsTOF
Instrument type: timsTOF
Ms type: MS2
Ion mode: POSITIVE
Collision energy: 46.2
Precursor m/z: 229.12230620711003
m/z	relative intensity
171.07897	662
172.08693	566
175.07465	638
186.10278	758
199.07638	999
