Mass spectrum: (3aS)-3a,5,5,8-tetramethyl-3,3a,4,5-tetrahydro-1Hcyclopenta[de]isochromen-1-one; ESI-Q-TOF; MS2; CE:35.112; [M+H]+
Name: (3aS)-3a,5,5,8-tetramethyl-3,3a,4,5-tetrahydro-1Hcyclopenta[de]isochromen-1-one
Class: 2-benzopyrans; Natural Product
Formula: C15H18O3
Exact mass: 246.1256
SMILES: C1(=CC(=C2C3=C1C(OCC3(CC2(C)C)C)=O)O)C
InChI: InChI=1S/C15H18O3/c1-8-5-9(16)11-12-10(8)13(17)18-7-15(12,4)6-14(11,2)3/h5,16H,6-7H2,1-4H3/t15-/m1/s1
Instrument: Bruker timsTOF
Instrument type: timsTOF
Ms type: MS2
Ion mode: POSITIVE
Collision energy: 35.112
Precursor m/z: 231.13795627157
m/z	relative intensity
57.07108	81
91.05542	86
103.05420	39
105.07006	399
106.07366	36
115.05337	66
116.06330	38
117.06992	121
127.05500	42
128.06413	186
129.06932	167
130.07753	267
131.08759	356
141.07225	94
142.07764	252
143.08393	640
144.09275	126
145.10140	999
146.10479	154
155.08672	126
156.09825	405
157.10128	492
158.10755	71
159.11671	58
169.10225	107
170.10783	206
171.08596	460
171.11679	386
172.08883	44
172.12037	81
175.07450	75
180.09249	48
183.08011	40
185.13300	229
189.09235	119
195.11890	52
198.10606	52
213.12727	326
214.13120	76
