Mass spectrum: Rickenyl B; ESI-Q-TOF; MS2; CE:40.656; [M+H]+
Name: Rickenyl B
Class: Anisoles; Natural Product
Formula: C22H20O6
Exact mass: 380.1260
SMILES: C1(=C(C(=O)C(C(=C1OC)C2=CC=C(C=C2)OC)=O)C3=CC=C(C=C3)OC)OC
InChI: InChI=1S/C22H20O6/c1-25-15-9-5-13(6-10-15)17-19(23)20(24)18(22(28-4)21(17)27-3)14-7-11-16(26-2)12-8-14/h5-12H,1-4H3
Instrument: ESI-Q-TOF
Instrument type: ESI-Q-TOF
Ms type: MS2
Ion mode: POSITIVE
Collision energy: 40.656
Precursor m/z: 381.13326481443
m/z	relative intensity
258.05474	47
273.07580	50
295.09706	36
303.06451	180
304.07128	60
306.08774	50
307.09800	91
318.08845	269
319.06129	55
319.09181	75
320.06719	40
321.11149	35
323.09188	40
333.07448	35
334.08167	91
335.09118	999
336.09450	233
349.11011	64
350.11494	689
351.08716	73
351.11826	174
366.11103	33
