Mass spectrum: Daldinin E/F; ESI-Q-TOF; MS2; CE:46.2; [M+H]+
Name: Daldinin E/F
Class: Benzopyrans; Natural Product
Formula: C24H28O9
Exact mass: 460.1733
SMILES: C1(C(C(C=2C(=C1)C(C3(OC2)C(CCC(O3)C)O)OC(=O)C(=CC=CC)C)=O)(OC(C)=O)C)=O
InChI: InChI=1S/C24H28O9/c1-6-7-8-13(2)22(29)31-21-16-11-19(27)23(5,33-15(4)25)20(28)17(16)12-30-24(21)18(26)10-9-14(3)32-24/h6-8,11-12,14,18,21,26H,9-10H2,1-5H3/b7-6+,13-8+/t14?,18?,21?,23-,24-/m0/s1
Instrument: Bruker timsTOF
Instrument type: timsTOF
Ms type: MS2
Ion mode: POSITIVE
Collision energy: 46.2
Precursor m/z: 461.18060893106997
m/z	relative intensity
79.05364	89
81.07198	520
82.07377	57
85.06431	101
109.06664	999
110.06841	83
125.06103	31
131.08593	32
151.03951	61
153.01979	40
161.05990	55
163.03876	88
167.03339	30
175.04104	71
177.05362	31
179.03597	74
187.07563	151
189.05524	73
191.03417	247
192.04314	41
193.05155	221
195.02725	56
201.09356	112
203.07146	106
205.05255	223
205.08867	221
207.06511	45
209.04433	77
215.06998	79
217.05061	49
219.10072	33
221.04439	57
229.08602	296
230.08932	46
231.06558	501
232.06937	105
233.04563	102
233.08071	532
234.08523	69
247.09965	270
248.09865	55
250.08328	255
251.09180	514
252.09476	69
257.08297	182
275.09108	642
276.09379	176
293.10241	794
294.10447	150
311.11399	69
312.11946	39
