Mass spectrum: Daldinin E/F; ESI-Q-TOF; MS2; CE:46.2; [M+H]+
Name: Daldinin E/F
Class: Benzopyrans; Natural Product
Formula: C24H28O9
Exact mass: 460.1733
SMILES: C1(C(C(C=2C(=C1)C(C3(OC2)C(CCC(O3)C)O)OC(=O)C(=CC=CC)C)=O)(OC(C)=O)C)=O
InChI: InChI=1S/C24H28O9/c1-6-7-8-13(2)22(29)31-21-16-11-19(27)23(5,33-15(4)25)20(28)17(16)12-30-24(21)18(26)10-9-14(3)32-24/h6-8,11-12,14,18,21,26H,9-10H2,1-5H3/b7-6+,13-8+/t14?,18?,21?,23-,24-/m0/s1
Instrument: Bruker timsTOF
Instrument type: timsTOF
Ms type: MS2
Ion mode: POSITIVE
Collision energy: 46.2
Precursor m/z: 483.16255318084
m/z	relative intensity
79.05382	93
81.07052	881
82.07184	66
109.06635	999
110.06729	116
136.04983	50
173.02055	323
183.04238	65
201.01618	184
202.02101	45
215.03197	125
225.09014	47
227.03048	98
229.04530	47
229.08580	32
231.02628	130
231.10109	51
239.07075	43
244.03492	258
247.09798	35
257.08297	34
261.03891	69
269.08170	370
271.06226	36
275.09743	68
287.09051	516
288.08838	146
297.07394	195
298.07664	112
309.06689	77
313.10614	48
315.08381	432
316.08938	109
317.09143	38
317.10508	34
329.09854	83
333.09313	506
339.08513	52
357.09452	502
358.09770	181
375.10442	319
376.10776	33
395.14682	85
483.16292	156
