Mass spectrum: Cohaerin G; ESI-Q-TOF; MS2; CE:46.2; [M+H]+
Name: Cohaerin G
Class: Cyclohexenones; Natural Product
Formula: C28H36O7
Exact mass: 484.2461
SMILES: CCCCCCC(C(C1C(OC2(C1C=3C(=CC2=O)C=C(OC3)C4C(CC(CC4C)O)=O)C)=O)=O)C
InChI: InChI=1S/C28H36O7/c1-5-6-7-8-9-15(2)26(32)24-25-19-14-34-21(23-16(3)10-18(29)13-20(23)30)11-17(19)12-22(31)28(25,4)35-27(24)33/h11-12,14-16,18,23-25,29H,5-10,13H2,1-4H3/t15?,16?,18?,23?,24?,25?,28-/m0/s1
Instrument: ESI-Q-TOF
Instrument type: ESI-Q-TOF
Ms type: MS2
Ion mode: POSITIVE
Collision energy: 46.2
Precursor m/z: 507.23532419948003
m/z	relative intensity
209.02537	40
364.09255	999
365.09598	333
366.10000	103
463.24151	31
507.23553	739
508.23973	270
509.24011	76
