Mass spectrum: (3aS)-7-hydroxy-3a,5,5,8-tetramethyl-3,3a,4,5-tetrahydro-1Hcyclopenta[de]isochromen-1-one; ESI-Q-TOF; MS2; CE:35.112; [M+H]+
Name: (3aS)-7-hydroxy-3a,5,5,8-tetramethyl-3,3a,4,5-tetrahydro-1Hcyclopenta[de]isochromen-1-one
Class: 2-benzopyrans; Natural Product
Formula: C15H18O2
Exact mass: 230.1307
SMILES: C1(=CC=C2C3=C1C(OCC3(CC2(C)C)C)=O)C
InChI: InChI=1S/C15H18O2/c1-9-5-6-10-12-11(9)13(16)17-8-15(12,4)7-14(10,2)3/h5-6H,7-8H2,1-4H3/t15-/m1/s1
Instrument: Bruker timsTOF
Instrument type: timsTOF
Ms type: MS2
Ion mode: POSITIVE
Collision energy: 35.112
Precursor m/z: 247.13287089117003
m/z	relative intensity
57.07180	64
91.05422	48
105.06908	152
117.07301	37
119.08377	74
121.06413	139
128.06109	91
129.06775	44
131.08300	108
132.05587	39
133.06559	36
133.10381	171
141.06939	55
143.08480	109
144.05916	57
144.09096	34
145.06385	105
145.09984	64
146.07182	214
147.07772	302
148.08319	31
155.08484	46
157.06677	33
158.07362	109
159.07606	475
159.11643	75
160.08512	95
161.10227	999
162.09869	112
169.06633	45
169.10198	39
171.08495	90
172.08824	438
173.05848	79
173.09822	408
174.10009	93
175.07581	79
175.10311	50
185.10158	92
186.06511	43
186.10342	222
187.06591	987
187.11152	490
188.07851	135
188.11508	103
191.07016	187
193.10070	38
199.07501	58
200.08747	32
201.09135	42
201.12704	478
202.13083	64
203.07033	33
203.14301	50
205.09312	298
206.08774	41
211.11164	61
214.09934	62
215.08210	41
229.11931	827
230.12535	174
247.13251	158
248.13575	31
