Mass spectrum: (3aS)-7-hydroxy-3a,5,5,8-tetramethyl-3,3a,4,5-tetrahydro-1Hcyclopenta[de]isochromen-1-one; ESI-Q-TOF; MS2; CE:35.112; [M+H]+
Name: (3aS)-7-hydroxy-3a,5,5,8-tetramethyl-3,3a,4,5-tetrahydro-1Hcyclopenta[de]isochromen-1-one
Class: 2-benzopyrans; Natural Product
Formula: C15H18O2
Exact mass: 230.1307
SMILES: C1(=CC=C2C3=C1C(OCC3(CC2(C)C)C)=O)C
InChI: InChI=1S/C15H18O2/c1-9-5-6-10-12-11(9)13(16)17-8-15(12,4)7-14(10,2)3/h5-6H,7-8H2,1-4H3/t15-/m1/s1
Instrument: Bruker timsTOF
Instrument type: timsTOF
Ms type: MS2
Ion mode: POSITIVE
Collision energy: 35.112
Precursor m/z: 229.12230620711003
m/z	relative intensity
91.05618	55
105.06931	67
115.05295	52
116.06503	38
117.06995	69
119.08497	45
121.06533	54
128.05934	97
129.06857	130
130.07529	55
131.08456	183
141.06942	139
142.07624	59
143.08521	155
144.05782	121
144.09270	108
145.06432	174
145.10020	142
146.07162	73
147.07674	62
153.07034	75
154.07761	57
155.08485	93
156.09171	35
157.06408	196
157.10093	33
158.07357	339
158.11200	91
159.08004	480
159.11654	88
160.08899	151
161.09444	37
167.08612	41
168.09229	62
169.10545	106
170.07459	35
171.08042	451
172.08780	999
173.06126	49
173.09487	388
173.13446	77
174.09572	49
175.07265	82
181.06485	52
183.11518	34
185.06028	48
185.09641	163
186.10347	501
187.07493	235
187.11382	305
188.08045	38
188.11209	53
193.10132	33
196.08799	72
197.09371	31
199.07495	314
200.08028	81
201.09005	52
201.12546	250
202.13037	33
211.11289	80
213.09495	47
214.09889	129
229.12849	294
230.12583	74
