Mass spectrum: (3aS,8R)-3a,5,5,8-tetramethyl-3,3a,4,5,7,8-hexahydro-1Hcyclopenta[de]isochromen-1-one; ESI-Q-TOF; MS2; CE:35.112; [M+H]+
Name: (3aS,8R)-3a,5,5,8-tetramethyl-3,3a,4,5,7,8-hexahydro-1Hcyclopenta[de]isochromen-1-one
Class: Dihydropyranones; Natural Product
Formula: C15H20O2
Exact mass: 232.1463
SMILES: C1(C2=C3C(=CC1)C(CC3(COC2=O)C)(C)C)C
InChI: InChI=1S/C15H20O2/c1-9-5-6-10-12-11(9)13(16)17-8-15(12,4)7-14(10,2)3/h6,9H,5,7-8H2,1-4H3/t9?,15-/m1/s1
Instrument: Bruker timsTOF
Instrument type: timsTOF
Ms type: MS2
Ion mode: POSITIVE
Collision energy: 35.112
Precursor m/z: 215.14304165196998
m/z	relative intensity
77.03883	49
91.05535	195
95.08586	49
105.07034	281
106.07202	63
115.05395	179
116.06189	71
117.07104	126
119.04881	34
119.08477	218
121.94656	50
127.05234	38
128.06147	231
129.07229	368
130.07770	297
131.08473	879
141.07191	124
142.07744	193
143.08579	504
144.09192	197
145.06654	231
145.10356	999
146.10821	92
153.06917	78
154.07851	81
155.08633	250
156.09366	155
157.06598	66
157.10043	652
158.07411	181
158.10469	229
159.07996	631
159.11573	102
160.08771	161
161.09365	75
167.08675	284
168.09111	68
169.10010	75
171.07829	122
171.11786	71
172.08839	179
172.12174	185
173.09614	330
173.13393	65
182.10801	252
185.09543	137
186.10212	242
187.15171	64
197.13395	124
198.13366	49
199.11366	75
200.11978	236
215.14878	237
