Mass spectrum: Rubiginosin B; ESI-Q-TOF; MS2; CE:40.656; [M+H]+
Name: Rubiginosin B
Class: unavailable
Formula: CH4
Exact mass: 16
SMILES: C
InChI: InChI=1S/CH4/h1H4
Instrument: ESI-Q-TOF
Instrument type: ESI-Q-TOF
Ms type: MS2
Ion mode: POSITIVE
Collision energy: 40.656
Precursor m/z: 403.13874411808996
m/z	relative intensity
151.02831	999
152.04220	69
189.09438	32
207.10331	122
235.10003	67
253.10757	94
