Mass spectrum: Daldinal A; ESI-Q-TOF; MS2; CE:40.656; [M+H]+
Name: Daldinal A
Class: Benzophenones; Natural Product
Formula: C17H16O6
Exact mass: 316.0947
SMILES: C1(=CC(=CC(=C1O)C(C2=CC(=CC(=C2C=O)OC)O)=O)C)OC
InChI: InChI=1S/C17H16O6/c1-9-4-12(17(21)15(5-9)23-3)16(20)11-6-10(19)7-14(22-2)13(11)8-18/h4-8,19,21H,1-3H3
Instrument: ESI-Q-TOF
Instrument type: ESI-Q-TOF
Ms type: MS2
Ion mode: POSITIVE
Collision energy: 40.656
Precursor m/z: 339.08390893528
m/z	relative intensity
160.05121	999
979.47869	61
