Mass spectrum: 6"-hidroxymitorubrinol acetate; ESI-Q-TOF; MS2; CE:46.2; [M+H]+
Name: 6"-hidroxymitorubrinol acetate
Class: ; Natural Product
Formula: C23H20O10
Exact mass: 456.1056
SMILES: C1=C(C(=C(C(=C1O)C(OC2(C(C=3C(=CC2=O)C=C(OC3)C=CCOC(C)=O)=O)C)=O)C)O)O
InChI: InChI=1S/C23H20O10/c1-11-19(16(25)9-17(26)20(11)28)22(30)33-23(3)18(27)8-13-7-14(5-4-6-31-12(2)24)32-10-15(13)21(23)29/h4-5,7-10,25-26,28H,6H2,1-3H3/b5-4+/t23-/m0/s1
Instrument: Bruker timsTOF
Instrument type: timsTOF
Ms type: MS2
Ion mode: POSITIVE
Collision energy: 46.2
Precursor m/z: 457.11292329283
m/z	relative intensity
167.03371	999
168.03723	81
189.05437	91
202.06640	41
203.06824	45
231.06490	257
232.06747	38
245.08592	41
248.06784	89
249.07412	96
273.07575	204
274.08161	33
291.08595	72
