Mass spectrum: 2-Methoxybenzoic Acid; ESI-TOF; MS2; POS
Name: 2-Methoxybenzoic Acid
Formula: C8H8O3
Exact mass: 152
SMILES: COC1=CC=CC=C1C(=O)O
InChI: InChI=InChI=1S/C8H8O3/c1-11-7-5-3-2-4-6(7)8(9)10/h2-5H,1H3,(H,9,10)
Instrument: maXis HD
Instrument type: ESI-TOF
Ms type: MS
Ion mode: POSITIVE
Retention time: 603.198 sec
Base peak: 135.0442
m/z	relative intensity
77.0385	2
79.0209	5
92.0256	4
116.5178	2
120.0203	2
125.5230	3
134.5280	2
135.0442	999
136.0475	85
137.0494	6
153.0548	330
154.0581	27
155.0595	2
170.0812	2
175.0367	129
176.0399	10
191.0105	2
197.0185	4
231.0685	6
237.0067	1
253.0506	2
305.1020	2
327.0839	9
328.0869	1
421.0623	1
